* Copyright (c) 2000-2021 Analog Devices, Inc. All rights reserved.
*

.MODEL 2N2608 PJF(AF=1 BETA=423.6u BETATCE=-0.5 CGD=6.7p CGS=8.37p FC=0.5 IS=222.4f LAMBDA=15m MFG=NSC N=1 NR=2 PB=1 RD=1 RS=1 VTO=-2.45 XTI=3)
.MODEL 2N3370 NJF(AF=1 BETA=766.8u BETATCE=-0.5 CGD=2.8p CGS=2.916p FC=0.5 IS=114.5f LAMBDA=9m MFG=NSC N=1 NR=2 PB=0.5 RD=1 RS=1 VTO=-0.65 XTI=3)
.MODEL 2N3458 NJF(AF=1 BETA=700u BETATCE=-0.5 CGD=2.8p CGS=2.916p FC=0.5 IS=114.5f LAMBDA=6m MFG=NSC N=1 NR=2 PB=0.5 RD=1 RS=1 VTO=-3.05 XTI=3)
.MODEL 2N3459 NJF(AF=1 BETA=1.265m BETATCE=-0.5 CGD=2.8p CGS=2.916p FC=0.5 IS=114.5f LAMBDA=4m MFG=NSC N=1 NR=2 PB=0.5 RD=1 RS=1 VTO=-1.4 XTI=3)
.MODEL 2N3684 NJF(AF=1 BETA=348.1u BETATCE=-0.5 CGD=2p CGS=2.083p FC=0.5 IS=114.5f LAMBDA=11.67m MFG=NSC N=1 NR=2 PB=0.5 RD=1 RS=1 VTO=-3.18 XTI=3)
.MODEL 2N3685 NJF(AF=1 BETA=543.4u BETATCE=-0.5 CGD=2p CGS=2.083p FC=0.5 IS=114.5f LAMBDA=5.833m MFG=NSC N=1 NR=2 PB=0.5 RD=1 RS=1 VTO=-1.691 XTI=3)
.MODEL 2N3686 NJF(AF=1 BETA=723.7u BETATCE=-0.5 CGD=2p CGS=2.083p FC=0.5 IS=114.5f LAMBDA=2.333m MFG=NSC N=1 NR=2 PB=0.5 RD=1 RS=1 VTO=-0.957 XTI=3)
.MODEL 2N3687 NJF(AF=1 BETA=840u BETATCE=-0.5 CGD=2p CGS=2.083p FC=0.5 IS=114.5f LAMBDA=1.167m MFG=NSC N=1 NR=2 PB=0.5 RD=1 RS=1 VTO=-0.5102 XTI=3)
.MODEL 2N3819 NJF(AF=1 ALPHA=311.7u BETA=1.304m BETATCE=-0.5 CGD=1.6p CGS=2.414p FC=0.5 IS=33.57f ISR=322.4f KF=9.882e-18 LAMBDA=2.25m M=0.3622 MFG=Vishay N=1 NR=2 PB=1 RD=1 RS=1 VK=243.6 VTO=-3 VTOTC=-2.5m XTI=3)
.MODEL 2N3821 NJF(AF=1 BETA=1.517m BETATCE=-0.5 CGD=4p CGS=4.627p FC=0.5 IS=181.3f LAMBDA=2.045m MFG=NSC N=1 NR=2 PB=0.5 RD=1 RS=1 VTO=-0.8467 XTI=3)
.MODEL 2N3822 NJF(AF=1 BETA=1.1m BETATCE=-0.5 CGD=4p CGS=4.627p FC=0.5 IS=181.3f LAMBDA=4.09m MFG=NSC N=1 NR=2 PB=0.5 RD=1 RS=1 VTO=-1.962 XTI=3)
.MODEL 2N3823 NJF(AF=1 BETA=1.17m BETATCE=-0.5 CGD=1.6p CGS=2.414p FC=0.5 IS=33.57f LAMBDA=4m MFG=NSC N=1 NR=2 PB=1 RD=1 RS=1 VTO=-3.3 XTI=3)
.MODEL 2N3824 NJF(AF=1 BETA=436.4u BETATCE=-0.5 CGD=4p CGS=4.627p FC=0.5 IS=181.3f LAMBDA=5.333m MFG=NSC N=1 NR=2 PB=0.5 RD=1 RS=1 VTO=-2.139 XTI=3)
.MODEL 2N3921 NJF(AF=1 BETA=1.57m BETATCE=-0.5 CGD=8.8p CGS=4.4p FC=0.5 IS=24.55f LAMBDA=4m MFG=NSC N=1 NR=2 PB=1 RD=1 RS=1 VTO=-1.799 XTI=3)
.MODEL 2N3954 NJF(AF=1 BETA=768.3u BETATCE=-0.5 CGD=1.71p CGS=0.86p FC=0.5 IS=24.55f LAMBDA=4.25m MFG=NSC N=1 NR=2 PB=1 RD=1 RS=1 VTO=-2.033 XTI=3)
.MODEL 2N3966 NJF(AF=1 BETA=650u BETATCE=-0.5 CGD=1.6p CGS=2.414p FC=0.5 IS=33.57f LAMBDA=15m MFG=NSC N=1 NR=2 PB=1 RD=1 RS=1 VTO=-4.876 XTI=3)
.MODEL 2N3967 NJF(AF=1 BETA=754.7u BETATCE=-0.5 CGD=4p CGS=3.742p FC=0.5 IS=181.3f LAMBDA=3.667m MFG=NSC N=1 NR=2 PB=0.5 RD=1 RS=1 VTO=-2.49 XTI=3)
.MODEL 2N3970 NJF(AF=1 BETA=4.032m BETATCE=-0.5 CGD=10.48p CGS=9.31p FC=0.5 IS=205.2f LAMBDA=23m MFG=NSC N=1 NR=2 PB=1 RD=1 RS=1 VTO=-4.514 XTI=3)
.MODEL 2N3971 NJF(AF=1 BETA=6.313m BETATCE=-0.5 CGD=10.48p CGS=9.31p FC=0.5 IS=205.2f LAMBDA=13m MFG=NSC N=1 NR=2 PB=1 RD=1 RS=1 VTO=-2.598 XTI=3)
.MODEL 2N3972 NJF(AF=1 BETA=9.109m BETATCE=-0.5 CGD=10.48p CGS=9.31p FC=0.5 IS=205.2f LAMBDA=6m MFG=NSC N=1 NR=2 PB=1 RD=1 RS=1 VTO=-1.403 XTI=3)
.MODEL 2N4084 NJF(AF=1 BETA=1.57m BETATCE=-0.5 CGD=8.8p CGS=4.4p FC=0.5 IS=24.55f LAMBDA=4m MFG=NSC N=1 NR=2 PB=1 RD=1 RS=1 VTO=-1.799 XTI=3)
.MODEL 2N4091 NJF(AF=1 BETA=1.5645m BETATCE=-0.5 CGD=13.75p CGS=8.75p FC=0.5 IS=0.65462f LAMBDA=10m MFG=PHILIPS N=1 NR=2 PB=0.772344 RD=0.825115 RS=0.825115 VTO=-8.0337 XTI=3)
.MODEL 2N4092 NJF(AF=1 BETA=4.22567m BETATCE=-0.5 CGD=8.25p CGS=8.25p FC=0.5 IS=4.90805e-16 LAMBDA=0.0640354 MFG=PHILIPS N=1 NR=2 PB=0.755484 RD=1.14866 RS=1.14866 VTO=-2.2088 XTI=3)
.MODEL 2N4093 NJF(AF=1 BETA=6.94457m BETATCE=-0.5 CGD=8.3p CGS=8p FC=0.5 IS=6.91657e-16 LAMBDA=0.0397876 MFG=PHILIPS N=1 NR=2 PB=0.727722 RD=3.51442 RS=3.51442 VTO=-1.355 XTI=3)
.MODEL 2N4117 NJF(AF=1 ALPHA=797.9n BETA=33.07u BETATCE=-0.5 CGD=3.94p CGS=4.93p FC=0.5 IS=5.261f ISR=51.03f KF=4.561e-17 LAMBDA=13m M=0.4335 MFG=Fairchild N=1 NR=2 PB=1 RD=1 RS=1 VK=90.45 VTO=-1.2 VTOTC=-2.5m XTI=3)
.MODEL 2N4117A NJF(AF=1 BETA=49.01u BETATCE=-0.5 CGD=3.94p CGS=4.93p FC=0.5 IS=5.261f LAMBDA=13m MFG=NSC N=1 NR=2 PB=1 RD=1 RS=1 VTO=-1.1 XTI=3)
.MODEL 2N4118 NJF(AF=1 ALPHA=797.9n BETA=52.58u BETATCE=-0.5 CGD=3.94p CGS=4.93p FC=0.5 IS=5.261f ISR=51.03f KF=7.67e-17 LAMBDA=15m M=0.4335 MFG=Fairchild N=1 NR=2 PB=1 RD=1 RS=1 VK=90.45 VTO=-1.732 VTOTC=-2.5m XTI=3)
.MODEL 2N4119 NJF(AF=1 ALPHA=797.9n BETA=68.08u BETATCE=-0.5 CGD=3.94p CGS=4.93p FC=0.5 IS=5.261f ISR=51.03f KF=1.018e-16 LAMBDA=19m M=0.4335 MFG=Fairchild N=1 NR=2 PB=1 RD=1 RS=1 VK=90.45 VTO=-2.536 VTOTC=-2.5m XTI=3)
.MODEL 2N4220 NJF(AF=1 BETA=819.8u BETATCE=-0.5 CGD=4p CGS=4.627p FC=0.5 IS=181.3f LAMBDA=3.266m MFG=NSC N=1 NR=2 PB=0.5 RD=1 RS=1 VTO=-1.195 XTI=3)
.MODEL 2N4221 NJF(AF=1 BETA=726.3u BETATCE=-0.5 CGD=4p CGS=4.627p FC=0.5 IS=181.3f LAMBDA=4.15m MFG=NSC N=1 NR=2 PB=0.5 RD=1 RS=1 VTO=-2.139 XTI=3)
.MODEL 2N4222 NJF(AF=1 BETA=436.4u BETATCE=-0.5 CGD=4p CGS=4.627p FC=0.5 IS=181.3f LAMBDA=5.333m MFG=NSC N=1 NR=2 PB=0.5 RD=1 RS=1 VTO=-4.1 XTI=3)
.MODEL 2N4223 NJF(AF=1 BETA=1.04m BETATCE=-0.5 CGD=1.6p CGS=2.414p FC=0.5 IS=33.57f LAMBDA=5.5m MFG=NSC N=1 NR=2 PB=1 RD=1 RS=1 VTO=-3.05 XTI=3)
.MODEL 2N4338 NJF(AF=1 ALPHA=506.8u BETA=781u BETATCE=-0.5 CGD=2.8p CGS=2.916p FC=0.5 IS=114.5f ISR=1.091p KF=2.918e-18 LAMBDA=1.167m M=0.2271 MFG=Fairchild N=1 NR=2 PB=0.5 RD=1 RS=1 VK=251.7 VTO=-0.6606 VTOTC=-2.5m XTI=3)
.MODEL 2N4339 NJF(AF=1 BETA=555.8u BETATCE=-0.5 CGD=2.8p CGS=2.916p FC=0.5 IS=114.5f LAMBDA=3.5m MFG=NSC N=1 NR=2 PB=0.5 RD=1 RS=1 VTO=-1.218 XTI=3)
.MODEL 2N4340 NJF(AF=1 BETA=471u BETATCE=-0.5 CGD=2.8p CGS=2.916p FC=0.5 IS=114.5f LAMBDA=7m MFG=NSC N=1 NR=2 PB=0.5 RD=1 RS=1 VTO=-2.001 XTI=3)
.MODEL 2N4341 NJF(AF=1 BETA=387.1u BETATCE=-0.5 CGD=2.8p CGS=2.916p FC=0.5 IS=114.5f LAMBDA=14m MFG=NSC N=1 NR=2 PB=0.5 RD=1 RS=1 VTO=-3.336 XTI=3)
.MODEL 2N4381 PJF(AF=1 BETA=2.658m BETATCE=-0.5 CGD=6.61p CGS=8.26p FC=0.5 IS=222.4f LAMBDA=15m MFG=NSC N=1 NR=2 PB=1 RD=1 RS=1 VTO=-1.8 XTI=3)
.MODEL 2N4391 NJF(AF=1 BETA=1.5645m BETATCE=-0.5 CGD=1.325e-11 CGS=8.25p FC=0.5 IS=6.5462e-16 LAMBDA=0.01 MFG=PHILIPS N=1 NR=2 PB=0.772344 RD=0.825115 RS=0.825115 VTO=-8.0337 XTI=3)
.MODEL 2N4392 NJF(AF=1 BETA=4.22567m BETATCE=-0.5 CGD=7.75p CGS=7.75p FC=0.5 IS=4.90805e-16 LAMBDA=0.0640354 MFG=PHILIPS N=1 NR=2 PB=0.755484 RD=1.14866 RS=1.14866 VTO=-2.2088 XTI=3)
.MODEL 2N4393 NJF(AF=1 ALPHA=20.98u BETA=9.109m BETATCE=-0.5 CGD=4.57p CGS=4.06p FC=0.5 IS=205.2f ISR=1.988p KF=1.23e-16 LAMBDA=6m M=0.4069 MFG=Fairchild N=1 NR=2 PB=1 RD=1 RS=1 VK=123.7 VTO=-1.422 VTOTC=-2.5m XTI=3)
.MODEL 2N4416 NJF(AF=1 ALPHA=311.7u BETA=989.4u BETATCE=-0.5 CGD=1.6p CGS=2.414p FC=0.5 IS=33.57f ISR=322.4f KF=7.445e-18 LAMBDA=5.5m M=0.3622 MFG=Fairchild N=1 NR=2 PB=1 RD=1 RS=1 VK=243.6 VTO=-3.06 VTOTC=-2.5m XTI=3)
.MODEL 2N4856 NJF(AF=1 BETA=2.86527m BETATCE=-0.5 CGD=1.3e-11 CGS=1.05e-11 FC=0.5 IS=1.18582f LAMBDA=0.0619323 MFG=PHILIPS N=1 NR=2 PB=0.798217 RD=1.62278 RS=1.62278 VTO=-5.3298 XTI=3)
.MODEL 2N4856A NJF(AF=1 BETA=3.084m BETATCE=-0.5 CGD=5.71p CGS=5.07p FC=0.5 IS=205.2f LAMBDA=11m MFG=NSC N=1 NR=2 PB=1 RD=1 RS=1 VTO=-5.517 XTI=3)
.MODEL 2N4857 NJF(AF=1 BETA=5.01519m BETATCE=-0.5 CGD=1.4e-11 CGS=1.05e-11 FC=0.5 IS=9.11151e-16 LAMBDA=0.0240112 MFG=PHILIPS N=1 NR=2 PB=0.56805 RD=1.48485 RS=1.48485 VTO=-3.1621 XTI=3)
.MODEL 2N4857A NJF(AF=1 BETA=6.313m BETATCE=-0.5 CGD=5.34p CGS=4.74p FC=0.5 IS=205.2f LAMBDA=9.5m MFG=NSC N=1 NR=2 PB=1 RD=1 RS=1 VTO=-3.05 XTI=3)
.MODEL 2N4858 NJF(AF=1 BETA=6.09357m BETATCE=-0.5 CGD=1.1e-11 CGS=1.05e-11 FC=0.5 IS=9.89866e-16 LAMBDA=0.0526244 MFG=PHILIPS N=1 NR=2 PB=0.606848 RD=1.26608 RS=1.26608 VTO=-2.4397 XTI=3)
.MODEL 2N4858A NJF(AF=1 BETA=7.646m BETATCE=-0.5 CGD=5.34p CGS=4.74p FC=0.5 IS=205.2f LAMBDA=8m MFG=NSC N=1 NR=2 PB=1 RD=1 RS=1 VTO=-2.387 XTI=3)
.MODEL 2N4859 NJF(AF=1 BETA=2.86527m BETATCE=-0.5 CGD=1.3e-11 CGS=1.05e-11 FC=0.5 IS=1.18582f LAMBDA=0.0619323 MFG=PHILIPS N=1 NR=2 PB=0.798217 RD=1.62278 RS=1.62278 VTO=-5.3298 XTI=3)
.MODEL 2N4859A NJF(AF=1 BETA=3.084m BETATCE=-0.5 CGD=5.71p CGS=5.07p FC=0.5 IS=205.2f LAMBDA=12m MFG=NSC N=1 NR=2 PB=1 RD=1 RS=1 VTO=-5.431 XTI=3)
.MODEL 2N4860 NJF(AF=1 BETA=5.01519m BETATCE=-0.5 CGD=1.4e-11 CGS=1.05e-11 FC=0.5 IS=9.11151e-16 LAMBDA=0.0240112 MFG=PHILIPS N=1 NR=2 PB=0.56805 RD=1.48485 RS=1.48485 VTO=-3.1621 XTI=3)
.MODEL 2N4860A NJF(AF=1 BETA=6.313m BETATCE=-0.5 CGD=5.34p CGS=4.74p FC=0.5 IS=205.2f LAMBDA=10m MFG=NSC N=1 NR=2 PB=1 RD=1 RS=1 VTO=-2.998 XTI=3)
.MODEL 2N4861 NJF(AF=1 BETA=6.09357m BETATCE=-0.5 CGD=1.1e-11 CGS=1.05e-11 FC=0.5 IS=9.89866e-16 LAMBDA=0.0526244 MFG=PHILIPS N=1 NR=2 PB=0.606848 RD=1.26608 RS=1.26608 VTO=-2.4397 XTI=3)
.MODEL 2N4861A NJF(AF=1 BETA=8.362m BETATCE=-0.5 CGD=5.34p CGS=4.74p FC=0.5 IS=205.2f LAMBDA=8m MFG=NSC N=1 NR=2 PB=1 RD=1 RS=1 VTO=-2.308 XTI=3)
.MODEL 2N5018 PJF(AF=1 BETA=772.5u BETATCE=-0.5 CGD=6.5p CGS=9p FC=0.5 IS=461.5f LAMBDA=40m MFG=NSC N=1 NR=2 PB=1 RD=1 RS=1 VTO=-4.15 XTI=3)
.MODEL 2N5019 PJF(AF=1 BETA=1.775m BETATCE=-0.5 CGD=6.5p CGS=9p FC=0.5 IS=461.5f LAMBDA=24m MFG=NSC N=1 NR=2 PB=1 RD=1 RS=1 VTO=-2.229 XTI=3)
.MODEL 2N5020 PJF(AF=1 BETA=1.004m BETATCE=-0.5 CGD=8.55p CGS=10.68p FC=0.5 IS=222.4f LAMBDA=10m MFG=NSC N=1 NR=2 PB=1 RD=1 RS=1 VTO=-0.8406 XTI=3)
.MODEL 2N5021 PJF(AF=1 BETA=2.658m BETATCE=-0.5 CGD=8.55p CGS=10.68p FC=0.5 IS=222.4f LAMBDA=12m MFG=NSC N=1 NR=2 PB=1 RD=1 RS=1 VTO=-0.9996 XTI=3)
.MODEL 2N5045 NJF(AF=1 BETA=1.271m BETATCE=-0.5 CGD=5.71p CGS=2.85p FC=0.5 IS=24.55f LAMBDA=3.5m MFG=NSC N=1 NR=2 PB=1 RD=1 RS=1 VTO=-1.95 XTI=3)
.MODEL 2N5078 NJF(AF=1 BETA=850.8u BETATCE=-0.5 CGD=1.6p CGS=2.414p FC=0.5 IS=33.57f LAMBDA=6.75m MFG=NSC N=1 NR=2 PB=1 RD=1 RS=1 VTO=-3.97 XTI=3)
.MODEL 2N5103 NJF(AF=1 BETA=1.426m BETATCE=-0.5 CGD=1.6p CGS=2.414p FC=0.5 IS=33.57f LAMBDA=3.167m MFG=NSC N=1 NR=2 PB=1 RD=1 RS=1 VTO=-1.85 XTI=3)
.MODEL 2N5105 NJF(AF=1 BETA=1.464m BETATCE=-0.5 CGD=1.6p CGS=2.414p FC=0.5 IS=33.57f LAMBDA=3.167m MFG=NSC N=1 NR=2 PB=1 RD=1 RS=1 VTO=-2.5 XTI=3)
.MODEL 2N5114 PJF(AF=1 ALPHA=32.54u BETA=510.2u BETATCE=-0.5 CGD=6.5p CGS=9p FC=0.5 IS=461.5f ISR=4.402p KF=3.296e-17 LAMBDA=40m M=0.2789 MFG=Fairchild N=1 NR=2 PB=1 RD=1 RS=1 VK=393.2 VTO=-8.095 VTOTC=-2.5m XTI=3)
.MODEL 2N5116 PJF(AF=1 BETA=1.71m BETATCE=-0.5 CGD=6.5p CGS=9p FC=0.5 IS=461.5f LAMBDA=25m MFG=NSC N=1 NR=2 PB=1 RD=1 RS=1 VTO=-2.373 XTI=3)
.MODEL 2N5196 NJF(AF=1 BETA=812.9u BETATCE=-0.5 CGD=3.28p CGS=1.64p FC=0.5 IS=24.55f LAMBDA=5m MFG=NSC N=1 NR=2 PB=1 RD=1 RS=1 VTO=-2.257 XTI=3)
.MODEL 2N5196_ NJF(AF=1 BETA=850u CGD=3.5p CGS=1.6p FC=0.5 IS=35f KF=3.4e-18 LAMBDA=5m PB=1 RD=0.9 RS=0.9 VTO=-2.1)
.MODEL 2N5358 NJF(AF=1 BETA=1.064m BETATCE=-0.5 CGD=4p CGS=4.627p FC=0.5 IS=181.3f LAMBDA=2.571m MFG=NSC N=1 NR=2 PB=0.5 RD=1 RS=1 VTO=-0.8005 XTI=3)
.MODEL 2N5397 NJF(AF=1 BETA=1.242m BETATCE=-0.5 CGD=2.6p CGS=3.598p FC=0.5 IS=101.9f LAMBDA=8m MFG=NSC N=1 NR=2 PB=1 RD=1 RS=1 VTO=-3.679 XTI=3)
.MODEL 2N5398 NJF(AF=1 BETA=1.242m BETATCE=-0.5 CGD=3p CGS=3.383p FC=0.5 IS=101.9f LAMBDA=8m MFG=NSC N=1 NR=2 PB=1 RD=1 RS=1 VTO=-3.323 XTI=3)
.MODEL 2N5432 NJF(AF=1 ALPHA=152.8u BETA=9.109m BETATCE=-0.5 CGD=35.6p CGS=35.6p FC=0.5 IS=533.7f ISR=5.174p KF=1.243e-16 LAMBDA=50m M=0.4283 MFG=Fairchild N=1 NR=2 PB=1 RD=1 RS=1 VK=111.9 VTO=-5.397 VTOTC=-2.5m XTI=3)
.MODEL 2N5433 NJF(AF=1 BETA=12.42m BETATCE=-0.5 CGD=35.6p CGS=35.6p FC=0.5 IS=533.7f LAMBDA=40m MFG=NSC N=1 NR=2 PB=1 RD=1 RS=1 VTO=-4.16 XTI=3)
.MODEL 2N5434 NJF(ALPHA=150u BETA=18m BETATCE=-0.5 CGD=35p CGS=35p IS=0.5p ISR=5p LAMBDA=25m M=0.4283 MFG=Vishay RD=1 RS=1 VK=110 VTO=-1.9 VTOTC=-2.5m)
.MODEL 2N5452 NJF(AF=1 BETA=768.3u BETATCE=-0.5 CGD=1.71p CGS=0.86p FC=0.5 IS=24.55f LAMBDA=2.5m MFG=NSC N=1 NR=2 PB=1 RD=1 RS=1 VTO=-2.017 XTI=3)
.MODEL 2N5460 PJF(ALPHA=0.0001 BETA=1m BETATCE=-0.5 CGD=5p CGS=5p IS=1.5p KF=3e-17 LAMBDA=10m MFG=Siliconix RD=10 RS=10 VK=300 VTO=-3.4 VTOTC=-3m)
.MODEL 2N5461 PJF(ALPHA=0.0001 BETA=1.5m BETATCE=-0.5 CGD=5p CGS=5p IS=1.5p KF=3e-17 LAMBDA=10m MFG=Siliconix RD=10 RS=10 VK=300 VTO=-4.3 VTOTC=-3m)
.MODEL 2N5462 PJF(ALPHA=0.0001 BETA=2m BETATCE=-0.5 CGD=5p CGS=5p IS=1.5p KF=3e-17 LAMBDA=10m MFG=Siliconix RD=10 RS=10 VK=300 VTO=-5.4 VTOTC=-3m)
.MODEL 2N5484 NJF(ALPHA=0.0001 BETA=3m BETATCE=-0.5 CGD=4p CGS=4p IS=0.25p KF=3e-17 LAMBDA=10m MFG=Siliconix RD=10 RS=10 VK=80 VTO=-1.5 VTOTC=-3m)
.MODEL 2N5485 NJF(ALPHA=0.0001 BETA=3.5m BETATCE=-0.5 CGD=4p CGS=4p IS=0.25p KF=3e-17 LAMBDA=10m MFG=Siliconix RD=10 RS=10 VK=80 VTO=-2 VTOTC=-3m)
.MODEL 2N5486 NJF(ALPHA=0.0001 BETA=4m BETATCE=-0.5 CGD=4p CGS=4p IS=0.25p KF=3e-17 LAMBDA=10m MFG=Siliconix RD=10 RS=10 VK=80 VTO=-4 VTOTC=-3m)
.MODEL 2N5515 NJF(AF=1 BETA=518.5u BETATCE=-0.5 CGD=8p CGS=14.64p FC=0.5 IS=52.8f LAMBDA=300u MFG=NSC N=1 NR=2 PB=0.5 RD=1 RS=1 VTO=-2.5 XTI=3)
.MODEL 2N5545 NJF(AF=1 BETA=1.271m BETATCE=-0.5 CGD=3.28p CGS=1.64p FC=0.5 IS=24.55f LAMBDA=4m MFG=NSC N=1 NR=2 PB=1 RD=1 RS=1 VTO=-2 XTI=3)
.MODEL 2N5556 NJF(AF=1 BETA=2.194m BETATCE=-0.5 CGD=1.6p CGS=2.414p FC=0.5 IS=33.57f LAMBDA=3.8m MFG=NSC N=1 NR=2 PB=1 RD=1 RS=1 VTO=-0.875 XTI=3)
.MODEL 2N5557 NJF(AF=1 BETA=1.307m BETATCE=-0.5 CGD=1.6p CGS=2.414p FC=0.5 IS=33.57f LAMBDA=4m MFG=NSC N=1 NR=2 PB=1 RD=1 RS=1 VTO=-1.805 XTI=3)
.MODEL 2N5558 NJF(AF=1 BETA=864u BETATCE=-0.5 CGD=1.6p CGS=2.414p FC=0.5 IS=33.57f LAMBDA=6.75m MFG=NSC N=1 NR=2 PB=1 RD=1 RS=1 VTO=-2.91 XTI=3)
.MODEL 2N5565 NJF(AF=1 BETA=9.109m BETATCE=-0.5 CGD=8.67p CGS=9.76p FC=0.5 IS=94.42f LAMBDA=7.5m MFG=NSC N=1 NR=2 PB=1 RD=1 RS=1 VTO=-1.447 XTI=3)
.MODEL 2N5902 NJF(AF=1 BETA=120u BETATCE=-0.5 CGD=1.23p CGS=1.23p FC=0.5 IS=16.33f LAMBDA=900u MFG=NSC N=1 NR=2 PB=1 RD=1 RS=1 VTO=-1.652 XTI=3)
.MODEL 2N5911 NJF(AF=1 BETA=2.203m BETATCE=-0.5 CGD=2.822p CGS=3.65p FC=0.5 IS=94.35f LAMBDA=12m MFG=NSC N=1 NR=2 PB=1 RD=1 RS=1 VTO=-2.694 XTI=3)
.MODEL 2N6483 NJF(AF=1 BETA=518.5u BETATCE=-0.5 CGD=8p CGS=14.64p FC=0.5 IS=52.8f LAMBDA=300u MFG=NSC N=1 NR=2 PB=0.5 RD=1 RS=1 VTO=-2.5 XTI=3)
.MODEL 2SJ103BL PJF(BETA=898.438U CGD=11.9398P CGS=14.4P IS=10F RD=200)
.MODEL 2SJ109 PJF(AF=1 ALPHA=10u BETA=39.21m BETATCE=-0.5 CGD=67.64p CGS=61.12p FC=0.5 IS=15.87p ISR=158.7p KF=1.099e-16 LAMBDA=4.338m M=0.2562 N=1 NR=2 PB=0.3905 RD=0 RS=0 VK=100 VTO=-0.5762 VTOTC=-2.5m XTI=3)
.MODEL 2SK118 NJF(AF=1 ALPHA=10u BETA=900u BETATCE=-0.5 CGD=5.7p CGS=6.6p FC=0.5 IS=11.3p ISR=113p KF=1e-18 LAMBDA=331u M=0.45 N=1 NR=2 PB=2 RD=36 RS=36 VK=100 VTO=-2.7 VTOTC=-2.5m XTI=3)
.MODEL BC264A NJF(AF=1 BETA=1.73071m BETATCE=-0.5 CGD=2.2p CGS=2.2p FC=0.5 IS=1.70538e-16 LAMBDA=0.0229157 MFG=PHILIPS N=1 NR=2 PB=0.978591 RD=9.05115 RS=9.05115 VTO=-1.0686 XTI=3)
.MODEL BC264B NJF(AF=1 BETA=1.1882m BETATCE=-0.5 CGD=2.2p CGS=2.15p FC=0.5 IS=3.20636e-16 LAMBDA=0.0187821 MFG=PHILIPS N=1 NR=2 PB=0.773534 RD=9.8455 RS=9.8455 VTO=-1.7564 XTI=3)
.MODEL BC264C NJF(AF=1 BETA=1.24635m BETATCE=-0.5 CGD=2.25p CGS=2.25p FC=0.5 IS=2.16894e-16 LAMBDA=0.0246045 MFG=PHILIPS N=1 NR=2 PB=0.932203 RD=16.8159 RS=16.8159 VTO=-2.085 XTI=3)
.MODEL BC264D NJF(AF=1 BETA=1.09045m BETATCE=-0.5 CGD=2.2p CGS=2p FC=0.5 IS=2.59121e-16 LAMBDA=0.0231754 MFG=PHILIPS N=1 NR=2 PB=0.991494 RD=7.77648 RS=7.77648 VTO=-2.3085 XTI=3)
.MODEL BF244A NJF(AF=1 ALPHA=311.7 BETA=1.754m BETATCE=-500m CGD=3.35p CGS=3.736p FC=500m IS=33.57f ISR=322.4f KF=0.01356f LAMBDA=2.667m M=362.2m N=1 NR=2 PB=1 RD=1 RS=1 VK=243.6 VTO=-1.409 VTOTC=-2.5m XTI=3)
.MODEL BF244B NJF(AF=1 ALPHA=311.7 BETA=1.6m BETATCE=-500m CGD=3.35p CGS=3.736p FC=500m IS=33.57f ISR=322.4f KF=0.01356f LAMBDA=3.1m M=362.2m N=1 NR=2 PB=1 RD=1 RS=1 VK=243.6 VTO=-2.29 VTOTC=-2.5m XTI=3)
.MODEL BF244C NJF(AF=1 ALPHA=311.7 BETA=1.5m BETATCE=-500m CGD=3.35p CGS=3.736p FC=500m IS=33.57f ISR=322.4f KF=0.01356f LAMBDA=3.8m M=362.2m N=1 NR=2 PB=1 RD=1 RS=1 VK=243.6 VTO=-3.099 VTOTC=-2.5m XTI=3)
.MODEL BF245A NJF(AF=1 BETA=1.16621m BETATCE=-0.5 CGD=2.2p CGS=2.2p FC=0.5 IS=2.91797e-16 LAMBDA=0.0177211 MFG=PHILIPS N=1 NR=2 PB=0.780988 RD=9.01678 RS=9.01678 VTO=-1.7372 XTI=3)
.MODEL BF245B NJF(AF=1 BETA=1.09045m BETATCE=-0.5 CGD=2.2p CGS=2p FC=0.5 IS=2.59121e-16 LAMBDA=0.0231754 MFG=PHILIPS N=1 NR=2 PB=0.991494 RD=7.77648 RS=7.77648 VTO=-2.3085 XTI=3)
.MODEL BF245C NJF(AF=1 BETA=0.000543157 BETATCE=-0.5 CGD=2p CGS=2p FC=0.5 IS=3.64346e-16 LAMBDA=0.0271505 MFG=PHILIPS N=1 NR=2 PB=1.24659 RD=12.0869 RS=12.0869 VTO=-5.0014 XTI=3)
.MODEL BF246A NJF(AF=1 BETA=2.86527m BETATCE=-0.5 CGD=1.3e-11 CGS=1.05e-11 FC=0.5 IS=1.18582f LAMBDA=0.0619323 MFG=PHILIPS N=1 NR=2 PB=0.798217 RD=1.62278 RS=1.62278 VTO=-5.3298 XTI=3)
.MODEL BF256A NJF(AF=1 BETA=1.06491m BETATCE=-0.5 CGD=2.3p CGS=2.1p FC=0.5 IS=3.50865e-16 LAMBDA=0.0168673 MFG=PHILIPS N=1 NR=2 PB=0.773895 RD=14.1231 RS=14.1231 VTO=-2.1333 XTI=3)
.MODEL BF256B NJF(AF=1 BETA=1.09045m BETATCE=-0.5 CGD=2.2p CGS=2p FC=0.5 IS=2.59121e-16 LAMBDA=0.0231754 MFG=PHILIPS N=1 NR=2 PB=0.991494 RD=7.77648 RS=7.77648 VTO=-2.3085 XTI=3)
.MODEL BF256C NJF(AF=1 ALPHA=311.7 BETA=1.4m BETATCE=-500m CGD=2.132p CGS=2.104p FC=500m IS=33.57f ISR=322.4f KF=0.02306f LAMBDA=4.6m M=362.2m N=1 NR=2 PB=1 RD=1 RS=1 VK=243.6 VTO=-3.1 VTOTC=-2.5m XTI=3)
.MODEL BF410A NJF(AF=1 BETA=2.01845m BETATCE=-0.5 CGD=4.27p CGS=2.8p FC=0.5 IS=1.05515e-13 LAMBDA=0.0150475 MFG=PHILIPS N=1 NR=2 PB=0.618391 RD=3.57223 RS=3.57223 VTO=-0.88094 XTI=3)
.MODEL BF410B NJF(AF=1 BETA=1.54719m BETATCE=-0.5 CGD=2.37p CGS=4.18p FC=0.5 IS=7.0236e-14 LAMBDA=0.0172995 MFG=PHILIPS N=1 NR=2 PB=0.71685 RD=3.06677 RS=3.06677 VTO=-1.9058 XTI=3)
.MODEL BF410C NJF(AF=1 BETA=1.31099m BETATCE=-0.5 CGD=2.68p CGS=3.42p FC=0.5 IS=5.66111e-14 LAMBDA=0.0170958 MFG=PHILIPS N=1 NR=2 PB=0.825674 RD=3.03493 RS=3.03493 VTO=-2.3973 XTI=3)
.MODEL BF410D NJF(AF=1 BETA=1.22441m BETATCE=-0.5 CGD=4.08p CGS=5.4p FC=0.5 IS=3.88189e-14 LAMBDA=0.0198434 MFG=PHILIPS N=1 NR=2 PB=0.859053 RD=2.61448 RS=2.61448 VTO=-3.1715 XTI=3)
.MODEL BF510 NJF(BETA=0.00201845 CGD=2.27e-12 CGS=2.8e-12 FC=0.5 IS=1.05515e-13 LAMBDA=0.0150475 MFG=PHILIPS PB=0.618391 RD=3.57223 RS=3.57223 VTO=-0.88094)
.MODEL BF511 NJF(AF=1 ALPHA=10u BETA=900u BETATCE=-0.5 CGD=2.5p CGS=2.5p FC=0.5 IS=100f ISR=1p KF=1e-18 LAMBDA=10m M=0.3333 N=1 NR=2 PB=1 RD=1 RS=1 VK=100 VTO=-2.288 VTOTC=-2.5m XTI=3)
.MODEL BF512 NJF(BETA=0.00131099 CGD=2.68e-12 CGS=3.42e-12 FC=0.5 IS=5.66111e-14 LAMBDA=0.0170958 MFG=PHILIPS PB=0.825674 RD=3.03493 RS=3.03493 VTO=-2.3973)
.MODEL BF513 NJF(BETA=0.00122441 CGD=4.08e-12 CGS=5.4e-12 FC=0.5 IS=3.88189e-14 LAMBDA=0.0198434 MFG=PHILIPS PB=0.859053 RD=2.61448 RS=2.61448 VTO=-3.1715)
.MODEL BF545A/PLP NJF(BETA=0.00116621 CGD=2.2p CGS=2.2p FC=0.5 IS=2.91797e-16 LAMBDA=0.0177211 MFG=PHILIPS PB=0.780988 RD=9.01678 RS=9.01678 VTO=-1.7372)
.MODEL BF545B/PLP NJF(BETA=0.00109045 CGD=2.2p CGS=2p FC=0.5 IS=2.59121e-16 LAMBDA=0.0231754 MFG=PHILIPS PB=0.991494 RD=7.77648 RS=7.77648 VTO=-2.3085)
.MODEL BF545C/PLP NJF(BETA=0.000543157 CGD=2p CGS=2p FC=0.5 IS=3.64346e-16 LAMBDA=0.0271505 MFG=PHILIPS PB=1.24659 RD=12.0869 RS=12.0869 VTO=-5.0014)
.MODEL BF556B NJF(BETA=1.09045m CGD=2.2p CGS=2p FC=0.5 IS=2.59121e-16 LAMBDA=0.0231754 MFG=NXP NJF PB=0.991494 RD=7.77648 RS=7.77648 VTO=-2.3085)
.MODEL BF851A NJF(AF=1 BETA=0.01519 BETATCE=-0.5 CGD=6.299p CGS=6.299p FC=0.5 IS=4.102e-16 LAMBDA=0.03593 MFG=PHILIPS N=1 NR=2 PB=0.6917 RD=4.164 RS=4.164 VTO=-0.5111 XTI=3)
.MODEL BF851B NJF(AF=1 BETA=0.01393 BETATCE=-0.5 CGD=6.025p CGS=6.025p FC=0.5 IS=3.769e-16 LAMBDA=0.04702 MFG=PHILIPS N=1 NR=2 PB=0.7072 RD=3.577 RS=3.577 VTO=-0.6391 XTI=3)
.MODEL BF851C NJF(AF=1 BETA=0.01522 BETATCE=-0.5 CGD=6.581p CGS=6.581p FC=0.5 IS=4.157e-16 LAMBDA=0.04494 MFG=PHILIPS N=1 NR=2 PB=0.7395 RD=15.2 RS=15.2 VTO=-1.145 XTI=3)
.MODEL BF861A NJF(AF=1 BETA=0.01519 BETATCE=-0.5 CGD=6.299p CGS=6.299p FC=0.5 IS=4.102e-16 LAMBDA=0.03593 MFG=PHILIPS N=1 NR=2 PB=0.6917 RD=4.164 RS=4.164 VTO=-0.5111 XTI=3)
.MODEL BF861B NJF(AF=1 BETA=0.01393 BETATCE=-0.5 CGD=6.025p CGS=6.025p FC=0.5 IS=3.769e-16 LAMBDA=0.04702 MFG=PHILIPS N=1 NR=2 PB=0.7072 RD=3.577 RS=3.577 VTO=-0.6391 XTI=3)
.MODEL BF861C NJF(AF=1 BETA=0.01522 BETATCE=-0.5 CGD=6.581p CGS=6.581p FC=0.5 IS=4.157e-16 LAMBDA=0.04494 MFG=PHILIPS N=1 NR=2 PB=0.7395 RD=15.2 RS=15.2 VTO=-1.145 XTI=3)
.MODEL BF862 NJF(AF=1 ALPHA=-1m BETA=47.8m BETATCE=-0.5 CGD=7.4p CGS=8.29p FC=0.5 IS=424.6p ISR=2.995p KF=8.75e-17 LAMBDA=37.3m M=0.6015 MFG=PHILIPS NR=2 PB=0.5 RD=0.8 RS=7.5 VK=59.97 VTO=-0.57093 VTOTC=-2m XTI=3)
.MODEL BFR30 NJF(AF=1 BETA=1.24635m BETATCE=-0.5 CGD=2.25p CGS=2.25p FC=0.5 IS=2.16894e-16 LAMBDA=0.0246045 MFG=PHILIPS N=1 NR=2 PB=0.932203 RD=16.8159 RS=16.8159 VTO=-2.085 XTI=3)
.MODEL BFR31 NJF(AF=1 BETA=1.73071m BETATCE=-0.5 CGD=2.2p CGS=2.2p FC=0.5 IS=1.70538e-16 LAMBDA=0.0229157 MFG=PHILIPS N=1 NR=2 PB=0.978591 RD=9.05115 RS=9.05115 VTO=-1.0686 XTI=3)
.MODEL BFT46 NJF(AF=1 BETA=1.86172m BETATCE=-0.5 CGD=2.2p CGS=2.2p FC=0.5 IS=1.68833e-16 LAMBDA=0.0216604 MFG=PHILIPS N=1 NR=2 PB=0.827713 RD=9.23044 RS=9.23044 VTO=-0.64188 XTI=3)
.MODEL BFU308 NJF(AF=1 BETA=3.33257m BETATCE=-0.5 CGD=6.7p CGS=7.6p FC=0.5 IS=3.82746e-16 LAMBDA=0.023441 MFG=PHILIPS N=1 NR=2 PB=0.776379 RD=1.50212 RS=1.50212 VTO=-3.213 XTI=3)
.MODEL BFU309 NJF(AF=1 BETA=3.81468m BETATCE=-0.5 CGD=6.2p CGS=7p FC=0.5 IS=3.02702e-16 LAMBDA=0.0380761 MFG=PHILIPS N=1 NR=2 PB=0.683767 RD=2.33008 RS=2.33008 VTO=-2.3973 XTI=3)
.MODEL BFU310 NJF(AF=1 BETA=2.88371m BETATCE=-0.5 CGD=6.7p CGS=7.9p FC=0.5 IS=4.189e-16 LAMBDA=0.0200998 MFG=PHILIPS N=1 NR=2 PB=0.758274 RD=1.5361 RS=1.5361 VTO=-3.8366 XTI=3)
.MODEL BFW10 NJF(AF=1 BETA=1.09045m BETATCE=-0.5 CGD=2.2p CGS=2p FC=0.5 IS=2.59121e-16 LAMBDA=0.0231754 MFG=PHILIPS N=1 NR=2 PB=0.991494 RD=7.77648 RS=7.77648 VTO=-2.3085 XTI=3)
.MODEL BFW11 NJF(AF=1 BETA=1.24635m BETATCE=-0.5 CGD=2.25p CGS=2.25p FC=0.5 IS=2.16894e-16 LAMBDA=0.0246045 MFG=PHILIPS N=1 NR=2 PB=0.932203 RD=16.8159 RS=16.8159 VTO=-2.085 XTI=3)
.MODEL BFW12 NJF(AF=1 BETA=1.73071m BETATCE=-0.5 CGD=2.2p CGS=2.2p FC=0.5 IS=1.70538e-16 LAMBDA=0.0229157 MFG=PHILIPS N=1 NR=2 PB=0.978591 RD=9.05115 RS=9.05115 VTO=-1.0686 XTI=3)
.MODEL BFW13 NJF(AF=1 BETA=1.86172m BETATCE=-0.5 CGD=2.2p CGS=2.2p FC=0.5 IS=1.68833e-16 LAMBDA=0.0216604 MFG=PHILIPS N=1 NR=2 PB=0.827713 RD=9.23044 RS=9.23044 VTO=-0.64188 XTI=3)
.MODEL BSR56 NJF(AF=1 BETA=2.86527m BETATCE=-0.5 CGD=1.3e-11 CGS=1.05e-11 FC=0.5 IS=1.18582f LAMBDA=0.0619323 MFG=PHILIPS N=1 NR=2 PB=0.798217 RD=1.62278 RS=1.62278 VTO=-5.3298 XTI=3)
.MODEL BSR57 NJF(AF=1 BETA=5.01519m BETATCE=-0.5 CGD=1.4e-11 CGS=1.05e-11 FC=0.5 IS=9.11151e-16 LAMBDA=0.0240112 MFG=PHILIPS N=1 NR=2 PB=0.56805 RD=1.48485 RS=1.48485 VTO=-3.1621 XTI=3)
.MODEL BSR58 NJF(AF=1 BETA=6.09357m BETATCE=-0.5 CGD=1.1e-11 CGS=1.05e-11 FC=0.5 IS=9.89866e-16 LAMBDA=0.0526244 MFG=PHILIPS N=1 NR=2 PB=0.606848 RD=1.26608 RS=1.26608 VTO=-2.4397 XTI=3)
.MODEL BSV78 NJF(AF=1 BETA=2.86527m BETATCE=-0.5 CGD=1.3e-11 CGS=1.05e-11 FC=0.5 IS=1.18582f LAMBDA=0.0619323 MFG=PHILIPS N=1 NR=2 PB=0.798217 RD=1.62278 RS=1.62278 VTO=-5.3298 XTI=3)
.MODEL BSV79 NJF(AF=1 BETA=3.25m BETATCE=-0.5 CGD=1.3e-11 CGS=1.1e-11 FC=0.5 IS=2.17605f LAMBDA=0.02 MFG=PHILIPS N=1 NR=2 PB=0.701712 RD=2.42642 RS=2.42642 VTO=-5.3638 XTI=3)
.MODEL DN5564 NJF(AF=1 ALPHA=15.64u BETA=9m BETATCE=-500m CGD=5.8p CGS=11.9p FC=500m IS=82.73f ISR=793f KF=0.5297f LAMBDA=7.5m M=318.4m N=1 NR=2 PB=1 RD=1 RS=1 VK=147.8 VTO=-1.9 VTOTC=-2.5m XTI=3)
.MODEL DN5565 NJF(AF=1 ALPHA=15.64u BETA=9m BETATCE=-500m CGD=5.8p CGS=11.9p FC=500m IS=82.73f ISR=793f KF=0.5297f LAMBDA=7.5m M=318.4m N=1 NR=2 PB=1 RD=1 RS=1 VK=147.8 VTO=-1.9 VTOTC=-2.5m XTI=3)
.MODEL DN5566 NJF(AF=1 ALPHA=15.64u BETA=9m BETATCE=-500m CGD=5.8p CGS=11.9p FC=500m IS=82.73f ISR=793f KF=0.5297f LAMBDA=7.5m M=318.4m N=1 NR=2 PB=1 RD=1 RS=1 VK=147.8 VTO=-1.9 VTOTC=-2.5m XTI=3)
.MODEL DN5567 NJF(AF=1 ALPHA=15.64u BETA=9m BETATCE=-500m CGD=5.8p CGS=6.8p FC=500m IS=82.73f ISR=793f KF=0.5297f LAMBDA=7.5m M=318.4m N=1 NR=2 PB=1 RD=1 RS=1 VK=147.8 VTO=-2 VTOTC=-2.5m XTI=3)
.MODEL FN4117 NJF(AF=1 ALPHA=18.01m BETA=49.01u BETATCE=-500m CGD=4.49p CGS=4.49p FC=500m IS=4.477f ISR=43.76f KF=0.02561f LAMBDA=7.5m M=435.9m N=1 NR=2 PB=1 RD=1 RS=1 VK=350.6 VTO=-1.066 VTOTC=-2.5m XTI=3)
.MODEL FN4117A NJF(AF=1 ALPHA=18.01m BETA=56.27u BETATCE=-500m CGD=4.49p CGS=4.49p FC=500m IS=4.477f ISR=43.76f KF=0.03082f LAMBDA=7.5m M=435.9m N=1 NR=2 PB=1 RD=1 RS=1 VK=350.6 VTO=-1.209 VTOTC=-2.5m XTI=3)
.MODEL FN4118 NJF(AF=1 ALPHA=18.01m BETA=85.1u BETATCE=-500m CGD=4.49p CGS=4.49p FC=500m IS=4.477f ISR=43.76f KF=0.0522f LAMBDA=7.5m M=435.9m N=1 NR=2 PB=1 RD=1 RS=1 VK=350.6 VTO=-1.259 VTOTC=-2.5m XTI=3)
.MODEL FN4118A NJF(AF=1 ALPHA=18.01m BETA=95.1u BETATCE=-500m CGD=4.49p CGS=4.49p FC=500m IS=4.477f ISR=43.76f KF=0.05981f LAMBDA=7.5m M=435.9m N=1 NR=2 PB=1 RD=1 RS=1 VK=350.6 VTO=-1.299 VTOTC=-2.5m XTI=3)
.MODEL FN4119 NJF(AF=1 ALPHA=18.01m BETA=17.64u BETATCE=-500m CGD=4.49p CGS=4.49p FC=500m IS=4.477f ISR=43.76f KF=0.004781f LAMBDA=10m M=435.9m N=1 NR=2 PB=1 RD=1 RS=1 VK=350.6 VTO=-4.27 VTOTC=-2.5m XTI=3)
.MODEL FN4119A NJF(AF=1 ALPHA=18.01m BETA=22.16u BETATCE=-500m CGD=4.49p CGS=4.49p FC=500m IS=4.477f ISR=43.76f KF=0.00751f LAMBDA=10m M=435.9m N=1 NR=2 PB=1 RD=1 RS=1 VK=350.6 VTO=-4.5 VTOTC=-2.5m XTI=3)
.MODEL FN4392 NJF(AF=1 ALPHA=15.64u BETA=7.477m BETATCE=-500m CGD=5.8p CGS=11.9p FC=500m IS=82.73f ISR=793f KF=0.44f LAMBDA=10m M=318.4m N=1 NR=2 PB=1 RD=1 RS=1 VK=147.8 VTO=-3.15 VTOTC=-2.5m XTI=3)
.MODEL FN4393 NJF(AF=1 ALPHA=15.64u BETA=8.4m BETATCE=-500m CGD=5.8p CGS=11.9p FC=500m IS=82.73f ISR=793f KF=0.4941f LAMBDA=7.5m M=318.4m N=1 NR=2 PB=1 RD=1 RS=1 VK=147.8 VTO=-2.1 VTOTC=-2.5m XTI=3)
.MODEL IF3602 NJF(B=1.8 BETA=260m CGD=1200p CGS=600p IS=0.05n KF=1e-18 LAMBDA=1m M=0.5 PB=0.75 RD=40m RS=40m VTO=-1.5)
.MODEL J105 NJF(AF=1 ALPHA=699.7n BETA=9m BETATCE=-500m CGD=140p CGS=142.3p FC=500m IS=304.4f ISR=2.995p KF=0.0875f LAMBDA=50m M=601.5m N=1 NR=2 PB=500m RD=1 RS=1 VK=59.97 VTO=-6.25 VTOTC=-2.5m XTI=3)
.MODEL J106 NJF(AF=1 ALPHA=699.7n BETA=12m BETATCE=-500m CGD=140p CGS=142.3p FC=500m IS=304.4f ISR=2.995p KF=0.117f LAMBDA=40m M=601.5m N=1 NR=2 PB=500m RD=1 RS=1 VK=59.97 VTO=-3.95 VTOTC=-2.5m XTI=3)
.MODEL J107 NJF(AF=1 ALPHA=699.7n BETA=15m BETATCE=-500m CGD=140p CGS=142.3p FC=500m IS=304.4f ISR=2.995p KF=0.146f LAMBDA=30m M=601.5m N=1 NR=2 PB=500m RD=1 RS=1 VK=59.97 VTO=-2.9 VTOTC=-2.5m XTI=3)
.MODEL J108 NJF(AF=1 BETA=0.0111439 BETATCE=-0.5 CGD=4.3e-11 CGS=2.75e-11 FC=0.5 IS=6.90136f LAMBDA=0.1 MFG=PHILIPS N=1 NR=2 PB=0.590984 RD=3.11414 RS=3.11414 VTO=-5.4528 XTI=3)
.MODEL J109 NJF(AF=1 BETA=7.61416m BETATCE=-0.5 CGD=4.6e-11 CGS=2.7e-11 FC=0.5 IS=1.77087f LAMBDA=0.141466 MFG=PHILIPS N=1 NR=2 PB=0.577536 RD=0.711991 RS=0.711991 VTO=-5.5556 XTI=3)
.MODEL J110 NJF(AF=1 BETA=0.0120784 BETATCE=-0.5 CGD=3.8e-11 CGS=2.8e-11 FC=0.5 IS=4.42809f LAMBDA=0.174601 MFG=PHILIPS N=1 NR=2 PB=0.46407 RD=1.03157 RS=1.03157 VTO=-2.778 XTI=3)
.MODEL J111 NJF(AF=1 BETA=3.25m BETATCE=-0.5 CGD=1.3e-11 CGS=1.1e-11 FC=0.5 IS=2.17605f LAMBDA=0.02 MFG=PHILIPS N=1 NR=2 PB=0.701712 RD=2.42642 RS=2.42642 VTO=-5.3638 XTI=3)
.MODEL J112 NJF(AF=1 BETA=5.97264m BETATCE=-0.5 CGD=1.2e-11 CGS=1.05e-11 FC=0.5 IS=8.87988e-16 LAMBDA=0.0231986 MFG=PHILIPS N=1 NR=2 PB=0.609944 RD=2.29075 RS=2.29075 VTO=-2.3303 XTI=3)
.MODEL J113 NJF(AF=1 BETA=9.25964m BETATCE=-0.5 CGD=1.2e-11 CGS=1.05e-11 FC=0.5 IS=9.8687e-16 LAMBDA=0.0303839 MFG=PHILIPS N=1 NR=2 PB=0.504493 RD=1.3017 RS=1.3017 VTO=-1.2854 XTI=3)
.MODEL J114 NJF(AF=1 ALPHA=13.92u BETA=910.9u BETATCE=-500m CGD=4.545p CGS=4.599p FC=500m IS=101.9f ISR=977.5f KF=0.01433f LAMBDA=20m M=344.8m N=1 NR=2 PB=1 RD=1 RS=1 VK=88.13 VTO=-4.86 VTOTC=-2.5m XTI=3)
.MODEL J174 PJF(AF=1 BETA=1.24461m BETATCE=-0.5 CGD=1.88e-11 CGS=1.58e-11 FC=0.5 IS=9.7275e-16 LAMBDA=0.0201968 MFG=PHILIPS N=1 NR=2 PB=0.372072 RD=3.95403 RS=3.95403 VTO=-7.1507 XTI=3)
.MODEL J175 PJF(AF=1 BETA=2.84523m BETATCE=-0.5 CGD=1.7e-11 CGS=1.57e-11 FC=0.5 IS=7.74158e-16 LAMBDA=0.02 MFG=PHILIPS N=1 NR=2 PB=0.31945 RD=11.7482 RS=11.7482 VTO=-3.632 XTI=3)
.MODEL J176 PJF(AF=1 BETA=2.89414m BETATCE=-0.5 CGD=1.05e-11 CGS=1e-11 FC=0.5 IS=4.51393e-16 LAMBDA=0.02 MFG=PHILIPS N=1 NR=2 PB=0.70586 RD=1.02409 RS=1.02409 VTO=-2.3 XTI=3)
.MODEL J177 PJF(AF=1 BETA=3.37432m BETATCE=-0.5 CGD=1.025e-11 CGS=8.9p FC=0.5 IS=7.27555e-16 LAMBDA=0.0241676 MFG=PHILIPS N=1 NR=2 PB=0.694243 RD=1.4588 RS=1.4588 VTO=-1.8 XTI=3)
.MODEL J201 NJF(AF=1 ALPHA=506.8u BETA=1.621m BETATCE=-500m CGD=4.667p CGS=2.992p FC=500m IS=114.5f ISR=1.091p KF=0.6042f LAMBDA=2.236m M=227.1m N=1 NR=2 PB=500m RD=1 RS=1 VK=251.7 VTO=-600m VTOTC=-2.5m XTI=3)
.MODEL J202 NJF(AF=1 ALPHA=506.8u BETA=985.5u BETATCE=-500m CGD=4.667p CGS=2.992p FC=500m IS=114.5f ISR=1.091p KF=0.3604f LAMBDA=7m M=227.1m N=1 NR=2 PB=500m RD=1 RS=1 VK=251.7 VTO=-1.612 VTOTC=-2.5m XTI=3)
.MODEL J203 NJF(AF=1 ALPHA=506.8u BETA=304.5u BETATCE=-500m CGD=4.667p CGS=2.992p FC=500m IS=114.5f ISR=1.091p KF=0.1034f LAMBDA=17m M=227.1m N=1 NR=2 PB=500m RD=1 RS=1 VK=251.7 VTO=-5.369 VTOTC=-2.5m XTI=3)
.MODEL J204 NJF(AF=1 ALPHA=698u BETA=1.004m BETATCE=-500m CGD=3.58p CGS=5.4p FC=500m IS=29.04f ISR=281.9f KF=0.165f LAMBDA=3.333m M=360.1m N=1 NR=2 PB=1 RD=1 RS=1 VK=270.4 VTO=-1.139 VTOTC=-2.5m XTI=3)
.MODEL J210 NJF(AF=1 ALPHA=13.92u BETA=2.222m BETATCE=-500m CGD=3.913p CGS=3.496p FC=500m IS=101.9f ISR=977.5f KF=0.8624f LAMBDA=8.8m M=344.8m N=1 NR=2 PB=1 RD=1 RS=1 VK=88.13 VTO=-1.526 VTOTC=-2.5m XTI=3)
.MODEL J211 NJF(AF=1 ALPHA=13.92u BETA=1.808m BETATCE=-500m CGD=3.913p CGS=3.496p FC=500m IS=101.9f ISR=977.5f KF=0.7015f LAMBDA=10m M=344.8m N=1 NR=2 PB=1 RD=1 RS=1 VK=88.13 VTO=-2.9 VTOTC=-2.5m XTI=3)
.MODEL J212 NJF(AF=1 ALPHA=13.92u BETA=873.3u BETATCE=-500m CGD=3.913p CGS=3.496p FC=500m IS=101.9f ISR=977.5f KF=0.3375f LAMBDA=16m M=344.8m N=1 NR=2 PB=1 RD=1 RS=1 VK=88.13 VTO=-5.029 VTOTC=-2.5m XTI=3)
.MODEL J230 NJF(AF=1 ALPHA=698u BETA=642.1u BETATCE=-500m CGD=2.59p CGS=3.882p FC=500m IS=29.04f ISR=281.9f KF=0.1601f LAMBDA=7.333m M=360.1m N=1 NR=2 PB=1 RD=1 RS=1 VK=270.4 VTO=-1.718 VTOTC=-2.5m XTI=3)
.MODEL J231 NJF(AF=1 ALPHA=698u BETA=1.004m BETATCE=-500m CGD=2.59p CGS=3.882p FC=500m IS=29.04f ISR=281.9f KF=0.2581f LAMBDA=8.667m M=360.1m N=1 NR=2 PB=1 RD=1 RS=1 VK=270.4 VTO=-2.107 VTOTC=-2.5m XTI=3)