* Copyright (c) 2000-2021 Analog Devices, Inc. All rights reserved.
*

.MODEL 10BQ015 D(BV=15 CJO=4.70891e-10 EG=0.6 FC=0.5 IBV=0.001 IS=0.0000166692 M=0.699718 N=1.0339 RS=0.0549971 TT=0 VJ=1.5 XTI=0.5)
.MODEL 10BQ040 D(BV=40 CJO=1.53747e-10 EG=0.600841 FC=0.5 IBV=0.0001 IS=0.0000213126 M=0.476132 N=1.53952 RS=0.123203 TT=0 VJ=1.5 XTI=3.78803)
.MODEL 10BQ100 D(BV=100 CJO=9.19104e-11 EG=0.600259 FC=0.5 IBV=0.0001 IS=3.8291n M=0.527626 N=2 RS=100 TT=1n VJ=1.5 XTI=0.5)
.MODEL 10CTQ150 D(BV=150 CJO=4.60092e-10 EG=0.6 FC=0.5 IBV=0.00005 IS=0.00000163362 M=0.500823 N=2 RS=0.0221615 TT=1n VJ=0.759589 XTI=0.5)
.MODEL 10MQ060N D(CJO=102p EG=0.69 IAVE=1.5 IS=0.1u M=0.3 MFG=International_Rectifier N=1 RS=0.14 TYPE=Schottky VPK=60 XTI=2)
.MODEL 10MQ100N D(BV=100 CJO=8.62759e-11 EG=0.6 FC=0.5 IBV=0.00025 IS=1e-7 M=0.43322 N=1.65612 RS=0.0807081 TT=1n VJ=0.4 XTI=0.5)
.MODEL 10TQ045 D(BV=45 CJO=1.42434n EG=0.6 FC=0.5 IBV=0.0001 IS=9.81804e-8 M=0.479175 N=0.993075 RS=0.00739225 TT=0 VJ=1.5 XTI=0.5)
.MODEL 120LQ045 D(BV=45 CJO=1.29866e-8 EG=1.3 FC=0.5 IBV=0.0001 IS=5.90313n M=0.473356 N=0.737625 RS=0.00455345 TT=1n VJ=0.462963 XTI=0.5)
.MODEL 120LQ100 D(BV=100 CJO=6.48813n EG=0.6 FC=0.5 IBV=0.0001 IS=0.000544678 M=0.384061 N=1.83305 RS=0.00277937 TT=1n VJ=0.4 XTI=0.5)
.MODEL 12CGQ150 D(BV=150 CJO=6.35956e-10 EG=1.3 FC=0.5 IBV=0.0001 IS=0.000024863 M=0.562241 N=2 RS=0.0252929 TT=0 VJ=1.5 XTI=0.5)
.MODEL 12CTQ045 D(BV=45 CJO=7.11199e-10 EG=0.6 FC=0.5 IBV=0.0001 IS=5.30534n M=0.484798 N=0.891364 RS=0.014271 TT=0 VJ=1.5 XTI=0.5)
.MODEL 12CWQ04FN D(BV=40 CJO=1.51803n EG=0.6 FC=0.5 IBV=0.0001 IS=0.00000105439 M=0.516518 N=1.07052 RS=0.0173547 TT=1n VJ=0.4 XTI=0.5)
.MODEL 12TQ045 D(BV=45 CJO=1.59319n EG=0.600004 FC=0.5 IBV=0.0001 IS=1.61329e-12 M=0.52241 N=0.5 RS=0.01 TT=0 VJ=1.5 XTI=0.5)
.MODEL 15CGQ100 D(BV=100 CJO=1.08792n EG=1.3 FC=0.5 IBV=0.0001 IS=0.0000874079 M=0.498115 N=2 RS=0.0180811 TT=0 VJ=0.846153 XTI=3.01057)
.MODEL 15CLQ100 D(BV=100 CJO=1.38463n EG=0.996757 FC=0.5 IBV=0.005 IS=0.0000644968 M=0.466344 N=2 RS=0.014091 TT=0 VJ=0.4 XTI=0.5)
.MODEL 15ETH06 D(BV=600 CJO=1.6387e-10 EG=0.6 FC=0.5 IBV=0.0001 IS=2.2756e-8 M=0.37991 N=2 RS=0.0177161 TT=1n VJ=0.71953 XTI=0.500021)
.MODEL 15LJQ100 D(BV=100 CJO=1.08848n EG=1.3 FC=0.5 IBV=0.0001 IS=0.0000615446 M=0.371667 N=1.88088 RS=0.0153982 TT=1n VJ=0.4 XTI=3.60437)
.MODEL 160CMQ045 D(BV=1000 CJO=4.75072n EG=0.6 FC=0.5 IBV=0.0001 IS=1.34755e-11 M=0.542103 N=0.5 RS=0.00275782 TT=1n VJ=1.5 XTI=0.5)
.MODEL 16CYQ150C D(BV=150 CJO=9.98822e-10 EG=1.3 FC=0.5 IBV=0.0001 IS=0.0000171508 M=0.484035 N=2 RS=0.0265393 TT=1n VJ=0.4 XTI=2.78486)
.MODEL 16SYQ060C D(BV=60 CJO=6.83071n EG=0.6 FC=0.5 IBV=0.0001 IS=1.66638e-8 M=0.497741 N=0.65508 RS=0.0183025 TT=1n VJ=0.4 XTI=0.5)
.MODEL 16YQ045C D(BV=45 CJO=6.92544n EG=1.3 FC=0.5 IBV=0.0001 IS=4.98611e-7 M=0.490188 N=0.98534 RS=0.0130029 TT=1n VJ=0.537519 XTI=2.9591)
.MODEL 16YQ150C D(BV=150 CJO=1.74923n EG=1.3 FC=0.5 IBV=0.0001 IS=0.0000263267 M=0.470085 N=2 RS=0.0169253 TT=1n VJ=0.4 XTI=2.95537)
.MODEL 18TQ045 D(BV=45 CJO=8.24939n EG=0.6 FC=0.5 IBV=0.0001 IS=1.97424e-13 M=0.462568 N=0.530234 RS=0.00628392 TT=0 VJ=1.5 XTI=0.05)
.MODEL 1N1200C D(BV=100 CJO=4.528e-10 EG=1.11 FC=0.5 IBV=0.0001 IS=0.00000994 M=0.4269 MFG=Motorola N=2 RS=0.00623 TT=7.237e-7 TYPE=silicon VJ=0.5189 VPK=100V XTI=3)
.MODEL 1N1206A D(BV=600 CJO=495P IAVE=12 IBV=397U IS=17.1N M=0.333 MFG=IRF N=1.7 RS=3.5M TT=4.32U TYPE=silicon VJ=0.75 VPK=600V)
.MODEL 1N1206C D(BV=100 CJO=4.528e-10 EG=1.11 FC=0.5 IBV=0.0001 IS=0.00000994 M=0.4269 N=2 RS=0.00653 TT=7.237e-7 VJ=0.5189 XTI=3)
.MODEL 1N34A D(BV=25 CJO=0.8p EG=0.67 IBV=0.003 IS=2.6u N=1.6 RS=6.5 TYPE=GePunctualContact)
.MODEL 1N4001 D(BV=75 CJO=25.89p EG=1.11 FC=0.5 IAVE=1 IBV=10u IKF=94.81 IS=14.11n M=0.44 MFG=GI N=1.984 RS=33.89m TT=5.7u TYPE=silicon VJ=0.3245 VPK=50 XTI=3)
.MODEL 1N4002 D(BV=100.1 CJO=5.117e-11 EG=1.11 FC=0.5 IAVE=1 IBV=10 IKF=94.81 IS=14.11n ISR=1e-10 M=0.2762 MFG=GI N=1.984 NR=2 RS=0.03389 TT=0.000004761 TYPE=silicon VJ=0.3905 VPK=100 XTI=3)
.MODEL 1N4007 D(BV=1000 CJO=1e-11 EG=1.05743 FC=0.5 IBV=5e-8 IS=7.02767n M=0.5 MFG=OnSemi N=1.80803 RS=0.0341512 TT=1e-7 TYPE=silicon VJ=0.7 XTI=5)
.MODEL 1N4106 D(BV=12 CJO=107.101P IBV=50U IS=5.72393F M=501.929M RS=100 VJ=750M)
.MODEL 1N4148 D(CJO=4p IAVE=200m IS=2.52n M=0.4 MFG=OnSemi N=1.752 RS=0.568 TT=20n TYPE=silicon VPK=75)
.MODEL 1N4448HWT D(BV=80 CJO=3.56p IAVE=0.25 IBV=100n IS=137f M=0.333 MFG=DiodesInc N=1.11 RS=0.168 TT=4ns TT=5.76n TYPE=silicon VPK=80V)
.MODEL 1N4467 D(BV=12.05 CJO=930p EG=1.11 FC=0.5 IBV=0.1785 IKF=0 IS=84.5f ISR=83.39n M=0.3333 N=1 NR=2 RS=0.1 TT=144.3n TYPE=zener VJ=0.75 XTI=3)
.MODEL 1N5355B D(BV=17.87 CJO=2.79e-10 IBV=0.065 IS=9.15e-16 M=0.33 MFG=DiodesInc RS=2.1 TT=5.01e-8 TYPE=zener VPK=18V)
.MODEL 1N5369B D(BV=51 CJO=10p IBV=25m IS=1.54e-17 MFG=OnSemi N=1 NBV=35 RS=0.1 TT=10n TYPE=Zener VPK=51 XTI=1)
.MODEL 1N5371B D(BV=60 CJO=10p IBV=20m IS=1.54e-17 MFG=OnSemi N=1 NBV=30 RS=0.1 TT=10n TYPE=Zener VPK=60 XTI=1)
.MODEL 1N5373B D(BV=68 CJO=10p IBV=20m IS=1.54e-17 MFG=OnSemi N=1 NBV=50 RS=0.1 TT=10n TYPE=Zener VPK=68 XTI=1)
.MODEL 1N5375B D(BV=82 CJO=10p IBV=15m IS=1.54e-17 MFG=OnSemi N=1 NBV=35 RS=0.1 TT=10n TYPE=Zener VPK=82 XTI=1)
.MODEL 1N5378B D(BV=100 CJO=10p IBV=12m IS=1.54e-17 MFG=OnSemi N=1 NBV=48 RS=0.1 TT=10n TYPE=Zener VPK=100 XTI=1)
.MODEL 1N5711 D(BV=93.3 CJO=1.8p EG=0.69 IBV=50n IS=19.7n M=0.333 N=1.51 RS=6.27 TT=10.8p TYPE=Schottky VJ=0.75 XTI=2)
.MODEL 1N5806 D(BV=150 CJO=66.3P IAVE=5 IBV=1U IS=23.3N M=0.333 N=1.67 RS=33.7M TT=43.2N TYPE=silicon VJ=0.75 VPK=150)
.MODEL 1N5806US D(BV=160 CJO=60.7p EG=1.11 IAVE=5 IBV=100u IKF=0.336 IS=13.14n ISR=168.5n MFG=Microsemi N=1.607 RS=28.6m TT=36.1n VPK=150 XTI=3)
.MODEL 1N5817 D(CJO=190p EG=0.69 IAVE=1 IS=31.7u M=0.3 MFG=OnSemi N=1.373 RS=0.051 TYPE=Schottky VPK=20 XTI=2)
.MODEL 1N5818 D(CJO=160p EG=0.69 IAVE=1 IS=31.7u M=0.38 MFG=OnSemi N=1.373 RS=0.051 TYPE=Schottky VPK=30 XTI=2)
.MODEL 1N5819 D(CJO=110p EG=0.69 IAVE=1 IS=31.7u M=0.35 MFG=OnSemi N=1.373 RS=0.051 TYPE=Schottky VPK=40 XTI=2)
.MODEL 1N5822 D(BV=40 CJO=980p EG=0.69 FC=0.5 IAVE=3 IBV=100u IKF=403 IS=2.5069u ISR=5.226u M=0.47978 MFG=ST N=1.0281 NR=4.995 RS=11.15m TT=0 TYPE=Schottky VJ=0.3905 VPK=40 XTI=2)
.MODEL 1N6513 D(BV=2200 CJ0=56.64p EG=1.11 FC=0.5 IAVE=2 IBV=100u IS=5e-7 M=0.5 MFG=VMI N=7.2 RS=0.14 TT=70n TYPE=Silicon VJ=1.67 VPK=2000 XTI=3)
.MODEL 1N6515 D(BV=3600 CJ0=35.24P EG=1.11 FC=0.5 IAVE=1.5 IBV=100U IS=0.5U M=0.5 MFG=VMI N=13.5 RS=0.18 TT=70N TYPE=Silicon VJ=3.29 VPK=3000 XTI=3)
.MODEL 1N6517 D(BV=6000 CJ0=22.76P EG=1.11 FC=0.5 IAVE=1 IBV=100U IS=0.5U M=0.5 MFG=VMI N=19.2 RS=0.36 TT=70N TYPE=Silicon VJ=6.41 VPK=5000 XTI=3)
.MODEL 1N6519 D(BV=12000 CJ0=8.87P EG=1.11 FC=0.5 IAVE=0.5 IBV=100U IS=0.5U M=0.5 MFG=VMI N=37 RS=0.75 TT=70N TYPE=Silicon VJ=14.03 VPK=10000 XTI=3)
.MODEL 1N6521 D(BV=2200 CJ0=11.94P EG=1.11 FC=0.5 IAVE=0.6 IBV=100U IS=0.25U M=0.5 MFG=VMI N=6.8 RS=29 TT=70N TYPE=Silicon VJ=1.57 VPK=2000 XTI=3)
.MODEL 1N6523 D(BV=3600 CJ0=4.77P EG=1.11 FC=0.5 IAVE=0.25 IBV=100U IS=0.25U M=0.5 MFG=VMI N=16 RS=0.48 TT=70N TYPE=Silicon VJ=3.81 VPK=3000 XTI=3)
.MODEL 1N6525 D(BV=6000 CJ0=3.1P EG=1.11 FC=0.5 IAVE=0.15 IBV=100U IS=0.25U M=0.5 MFG=VMI N=20.4 RS=0.9 TT=70N TYPE=Silicon VJ=6.73 VPK=5000 XTI=3)
.MODEL 1N6527 D(BV=12000 CJ0=1.45P EG=1.11 FC=0.5 IAVE=0.15 IBV=100U IS=0.25U M=0.5 MFG=VMI N=38.4 RS=1.8 TT=70N TYPE=Silicon VJ=17.06 VPK=10000 XTI=3)
.MODEL 1N6529 D(BV=2200 CJ0=4.77P EG=1.11 FC=0.5 IAVE=0.25 IBV=100U IS=0.1U M=0.5 MFG=VMI N=8.4 RS=0.8 TT=70N TYPE=Silicon VJ=1.23 VPK=2000 XTI=3)
.MODEL 1N6531 D(BV=3600 CJ0=1.92P EG=1.11 FC=0.5 IAVE=0.15 IBV=100U IS=0.1U M=0.5 MFG=VMI N=16.3 RS=1 TT=70N TYPE=Silicon VJ=6.21 VPK=3000 XTI=3)
.MODEL 1N6533 D(BV=6000 CJ0=1.44P EG=1.11 FC=0.5 IAVE=0.05 IBV=100U IS=0.1U M=0.5 MFG=VMI N=22.8 RS=3.8 TT=70N TYPE=Silicon VJ=7.17 VPK=5000 XTI=3)
.MODEL 1N6535 D(BV=12000 CJ0=0.68P EG=1.11 FC=0.5 IAVE=0.025 IBV=100U IS=0.1U M=0.5 MFG=VMI N=54 RS=14 TT=70N TYPE=Silicon VJ=16.15 VPK=10000 XTI=3)
.MODEL 1N6823 D(BV=120 CJO=11.7n EG=0.69 IAVE=150 IBV=5m IKF=3.295 IS=4.258u ISR=362n M=0.564 MFG=Microsemi N=1.265 NR=2 RS=1.038m TYPE=Schottky VPK=100 XTI=2)
.MODEL 1N746 D(BV=3.3 CJO=220p EG=1.11 FC=0.5 IBV=45.862m IBVL=29.831m IKF=0 IS=31.47f ISR=2.035n M=0.5959 MFG=Motorola N=1 NBV=3.0477 NBVL=11.606 NR=2 RS=9.494 TBV1=-636.4u TYPE=zener VJ=0.75 VPK=3.3 XTI=3)
.MODEL 1N747 D(BV=3.6 CJO=210p EG=1.11 FC=0.5 IBV=13.987m IBVL=10.212m IKF=0 IS=1.242f ISR=1.922n M=0.6063 MFG=Motorola N=1 NBV=3.031 NBVL=12.73 NR=2 RS=1.137 TBV1=-555.6u TYPE=zener VJ=0.75 VPK=3.6 XTI=3)
.MODEL 1N748 D(BV=3.9 CJO=205p EG=1.11 FC=0.5 IBV=17.244m IBVL=8.619m IKF=0 IS=1.252f ISR=1.867n M=0.6004 MFG=Motorola N=1 NBV=2.4016 NBVL=13.283 NR=2 RS=1.156 TBV1=-384.62u TYPE=zener VJ=0.75 VPK=3.9 XTI=3)
.MODEL 1N749 D(BV=4.3 CJO=190p EG=1.11 FC=0.5 IBV=16.748m IBVL=5.0382m IKF=0 IS=8.805e-16 ISR=1.743n M=0.6124 MFG=Motorola N=1 NBV=1.7936 NBVL=12.554 NR=2 RS=0.25 TBV1=-232.56u TYPE=zener VJ=0.75 VPK=4.3 XTI=3)
.MODEL 1N750 D(BV=4.7 CJO=175p IBV=20.245m IBVL=1.96m IS=0.88f ISR=1.86n M=0.55 MFG=OnSemi NBV=1.7 NBVL=15 NR=2 RS=0.25 TBV1=-21.3u TYPE=Zener VJ=0.75 VPK=4.7)
.MODEL 1N751 D(BV=5.1 CJO=160p EG=1.11 FC=0.5 IBV=27.721m IBVL=1.1646m IKF=0 IS=1.004f ISR=1.8n M=0.5484 MFG=Motorola N=1 NBV=1.1779 NBVL=21.894 NR=2 RS=0.5875 TBV1=176.47u TYPE=zener VJ=0.75 VPK=5.1 XTI=3)
.MODEL 1N752 D(BV=5.6 CJO=150p EG=1.11 FC=0.5 IBV=62.583m IBVL=631.96u IKF=0 IS=1.154f ISR=1.625n M=0.5788 MFG=Motorola N=1 NBV=0.62382 NBVL=50 NR=2 RS=0.9471 TBV1=267.86u TYPE=zener VJ=0.75 VPK=5.6 XTI=3)
.MODEL 1N754 D(BV=6.8 CJO=120p EG=1.11 FC=0.5 IBV=2.8814 IBVL=0.0000019426 IKF=0 IS=1.616f ISR=1.698n M=0.5117 MFG=Motorola N=1 NBV=0.28248 NBVL=0.27168 NR=2 RS=1.818 TBV1=485.29u TYPE=zener VJ=0.75 VPK=6.8 XTI=3)
.MODEL 1N755 D(BV=7.5 CJO=104p EG=1.11 FC=0.5 IBV=2.5701 IBVL=0.000040222 IKF=0 IS=2.077f ISR=1.645n M=0.5061 MFG=Motorola N=1 NBV=0.39227 NBVL=0.25042 NR=2 RS=2.467 TBV1=533.33u TYPE=zener VJ=0.75 VPK=7.5 XTI=3)
.MODEL 1N757 D(BV=9.1 CJO=78p EG=1.11 FC=0.5 IBV=0.48516 IBVL=1m IKF=0 IS=2.453f ISR=1.762n M=0.4399 MFG=Motorola N=1 NBV=0.7022 NBVL=0.13785 NR=2 RS=2.9 TBV1=604.396u TYPE=zener VJ=0.75 VPK=9.1 XTI=3)
.MODEL 1N914 D(CJO=4p IAVE=200m IS=2.52n M=0.4 MFG=OnSemi N=1.752 RS=0.568 TT=20n TYPE=silicon VPK=75)
.MODEL 1SS226 D(BV=85 CJO=879.9f EG=1.11 FC=0.5 IAVE=100m IBV=100u IKF=0 IS=5.157n ISR=3.476n M=0.1335 MFG=Toshiba N=1.903 NR=1.945 RS=0.7407 TT=2.308n TYPE=silicon VJ=11.85 VPK=80 XTI=3)
.MODEL 200TD120U D(BV=1200 CJO=1.8n EG=0.6 FC=0.5 IBV=0.0001 IS=1.4976e-11 M=0.45418 N=2 RS=0.007312 TT=1n VJ=0.4 XTI=4)
.MODEL 20CJQ030 D(BV=30 CJO=2.9346e-10 EG=1.3 FC=0.5 IBV=0.0001 IS=7.45927n M=0.427299 N=0.89875 RS=0.0632601 TT=0 VJ=0.4 XTI=4)
.MODEL 20CLQ045 D(BV=45 CJO=2.42073n EG=0.6 FC=0.5 IBV=0.005 IS=5.55194e-10 M=0.477502 N=0.736126 RS=0.01 TT=0 VJ=0.470122 XTI=0.5)
.MODEL 20ETS12 D(BV=1000 CJO=1e-11 EG=1.12793 FC=0.5 IBV=0.0001 IS=8.28224n M=0.5 N=1.61051 RS=0.00791517 TT=1n VJ=0.7 XTI=0.5)
.MODEL 20ETS12A+3S D(BV=1200 CJO=1e-11 EG=1.07556 FC=0.5 IBV=0.0001 IS=2.797e-10 M=0.5 N=1.38813 RS=0.0113232 TT=1n VJ=0.7 XTI=4)
.MODEL 20ETS12AVG D(BV=1200 CJO=1e-11 EG=1.06967 FC=0.5 IBV=0.0001 IS=3.14987e-10 M=0.5 N=1.37516 RS=0.01 TT=1n VJ=0.7 XTI=4)
.MODEL 22GQ100 D(BV=100 CJO=4.67713n EG=0.6 FC=0.5 IBV=0.0001 IS=5.91885e-14 M=0.513011 N=0.527335 RS=0.0197462 TT=0 VJ=0.4 XTI=0.5)
.MODEL 30BQ015 D(BV=15 CJO=1400p EG=0.6 FC=0.5 IAVE=3 IBV=3m IS=50u M=0.699718 MFG=International_Rectifier N=1.0339 RS=18m TYPE=Schottky VJ=1.5 VPK=15 XTI=0.5)
.MODEL 30BQ060 D(CJO=180p EG=0.69 IAVE=3 IS=10u MFG=International_Rectifier N=1.4 RS=0.04 TYPE=Schottky VPK=60 XTI=2)
.MODEL 30CLJQ045 D(BV=45 CJO=1.24067n EG=1.3 FC=0.5 IBV=0.0001 IS=6.17168e-7 M=0.481835 N=1.08809 RS=0.0202821 TT=0 VJ=0.408846 XTI=3.29182)
.MODEL 30CLJQ150 D(BV=150 CJO=3.73861e-10 EG=1.3 FC=0.5 IBV=0.0001 IS=0.00000130646 M=0.457852 N=2 RS=0.0239928 TT=0 VJ=0.4 XTI=3.05712)
.MODEL 30CTH02 D(BV=200 CJO=4.06302e-10 EG=1.3 FC=0.5 IBV=0.0001 IS=1e-15 M=0.3385 N=0.77819 RS=0.01 TT=1e-7 VJ=0.4 XTI=4)
.MODEL 30CTQ060S D(BV=60 CJO=1.18606n EG=0.510131 FC=0.5 IBV=0.0001 IS=0.001 M=0.494139 N=2.31312 RS=0.00753336 TT=1n VJ=1.5 XTI=0.497683)
.MODEL 30EPH06 D(BV=600 CJO=3.68339e-10 EG=0.626585 FC=0.5 IBV=0.0001 IS=3.75476e-10 M=0.404368 N=2 RS=0.0182211 TT=1.23518e-8 VJ=1.27928 XTI=0.500695)
.MODEL 30LJQ045 D(BV=45 CJO=2.65012n EG=0.6 FC=0.5 IBV=0.0001 IS=3.01029e-8 M=0.511241 N=0.877045 RS=0.00758833 TT=0 VJ=1.18451 XTI=0.5)
.MODEL 30LJQ100 D(BV=100 CJO=1.41531n EG=0.6 FC=0.5 IBV=0.0001 IS=0.000028036 M=0.47998 N=2 RS=0.0100392 TT=0 VJ=0.4 XTI=0.5)
.MODEL 30LJQ150 D(BV=150 CJO=9.09704e-10 EG=1.3 FC=0.5 IBV=0.0001 IS=0.00000479361 M=0.462283 N=2 RS=0.0108545 TT=0 VJ=0.4 XTI=0.502388)
.MODEL 30SCLJQ030 D(BV=30 CJO=1.61571n EG=1.3 FC=0.5 IBV=0.0001 IS=0.00000304923 M=0.472758 N=1.0506 RS=0.0123656 TT=0 VJ=0.442068 XTI=2.9944)
.MODEL 30SLJQ030 D(BV=30 CJO=5.85622n EG=0.6 FC=0.5 IBV=0.0001 IS=2.08649e-7 M=0.485403 N=0.86202 RS=0.00676047 TT=0 VJ=0.4 XTI=0.5)
.MODEL 32CTQ030 D(BV=30 CJO=2.11811n EG=0.6 FC=0.5 IBV=0.00175 IS=2.21746e-11 M=0.499425 N=0.5 RS=0.01 TT=0 VJ=1.5 XTI=2.38672)
.MODEL 32CTQ030H D(BV=30 CJO=2.11811n EG=1.07785 FC=0.5 IBV=0.00175 IS=1e-15 M=0.499425 N=0.5 RS=0.01 TT=0 VJ=1.5 XTI=4)
.MODEL 35CGQ100 D(BV=100 CJO=2.00581n EG=0.608064 FC=0.5 IBV=0.0001 IS=1e-15 M=0.513186 N=0.5 RS=0.01681 TT=1n VJ=1.24629 XTI=0.500208)
.MODEL 35CLQ045 D(BV=45 CJO=2.76301n EG=1.3 FC=0.5 IBV=0.0001 IS=2.76847e-7 M=0.489865 N=1.0155 RS=0.00674255 TT=0 VJ=1.01389 XTI=4)
.MODEL 40CPQ050 D(BV=1000 CJO=2.49633n EG=0.6 FC=0.5 IBV=0.0001 IS=2.4532e-11 M=0.483473 N=0.5 RS=0.0071 TT=1n VJ=1.5 XTI=0.5)
.MODEL 40CTQ045 D(BV=45 CJO=1.51919e-8 EG=1.04653 FC=0.5 IBV=0.00025 IS=3.357e-8 M=0.704417 N=0.5 RS=0.01 TT=1n VJ=0.4 XTI=0.957426)
.MODEL 40EPS08 D(BV=800 CJO=1e-11 EG=0.6 FC=0.5 IBV=0.0001 IS=1e-15 M=0.5 N=0.926332 RS=0.00426912 TT=1n VJ=0.7 XTI=0.5)
.MODEL 40EPS12 D(BV=1200 CJO=1e-11 EG=0.6 FC=0.5 IBV=0.0001 IS=1e-15 M=0.5 N=0.926332 RS=0.00426912 TT=1n VJ=0.7 XTI=0.5)
.MODEL 40EPS16 D(BV=1600 CJO=1e-11 EG=0.6 FC=0.5 IBV=0.0001 IS=1e-15 M=0.5 N=0.926332 RS=0.00426912 TT=1n VJ=0.7 XTI=0.5)
.MODEL 50WQ06FN D(BV=1000 CJO=8.86241e-10 EG=1.3 FC=0.5 IBV=0.0001 IS=1e-15 M=0.559144 N=0.5 RS=0.0205874 TT=1n VJ=0.899259 XTI=0.5)
.MODEL 5EQ100 D(BV=100 CJO=1.06148n EG=0.815312 FC=0.5 IBV=0.005 IS=0.0000877154 M=0.475554 N=2 RS=0.0202145 TT=0 VJ=0.79108 XTI=3.9995)
.MODEL 60LQ045 D(BV=45 CJO=6.87655n EG=0.6 FC=0.5 IBV=0.0001 IS=1e-7 M=0.408789 N=0.914851 RS=0.00252226 TT=0 VJ=0.4 XTI=0.5)
.MODEL 60LQ100 D(BV=100 CJO=4.12278n EG=0.6 FC=0.5 IBV=0.0001 IS=0.001 M=0.477205 N=1.79037 RS=0.0026041 TT=0 VJ=0.4 XTI=0.5)
.MODEL 6CWQ04FN D(BV=40 CJO=5.09354e-10 EG=0.6 FC=0.5 IBV=0.0001 IS=7.48131e-13 M=0.513157 N=0.540086 RS=0.0287717 TT=1n VJ=0.795245 XTI=0.5)
.MODEL 6CWQ10FN D(BV=100 CJO=2.9028e-10 EG=0.6 FC=0.5 IBV=0.001 IS=0.00000192816 M=0.453836 N=2 RS=0.0227346 TT=1n VJ=0.4 XTI=0.5)
.MODEL 6TQ045 D(BV=45 CJO=7.53573e-10 EG=1.3 FC=0.5 IBV=0.0001 IS=1.1357e-8 M=0.502931 N=0.895316 RS=0.0148614 TT=0 VJ=1.5 XTI=4)
.MODEL 75LQ150 D(BV=150 CJO=3.61923n EG=0.6 FC=0.5 IBV=0.0001 IS=0.0000647147 M=0.479638 N=2 RS=0.00457083 TT=0 VJ=0.4 XTI=0.5)
.MODEL 75SLQ030 D(BV=30 CJO=1.14291e-8 EG=1.3 FC=0.5 IBV=0.0001 IS=0.0000105375 M=0.46991 N=0.994404 RS=0.00235787 TT=0 VJ=0.4 XTI=0.5)
.MODEL 80CLQ150 D(BV=150 CJO=1.45286n EG=1.3 FC=0.5 IBV=0.0001 IS=0.0000300965 M=0.415374 N=2 RS=0.00595685 TT=0 VJ=0.4 XTI=3.40773)
.MODEL 80EBU02 D(BV=200 CJO=1.77691n EG=0.1 FC=0.5 IBV=50u IS=6.10239u M=0.495417 N=2 RS=0.00151476 TT=1n VJ=0.4 XTI=0.0005)
.MODEL 8EQ045 D(BV=45 CJO=1.98488n EG=0.689509 FC=0.5 IBV=0.005 IS=0.000018026 M=0.477336 N=1.50131 RS=0.0138308 TT=0 VJ=0.711167 XTI=4)
.MODEL 8ETH06 D(BV=600 CJO=1.56732e-10 EG=1.3 FC=0.5 IBV=0.0001 IS=6.92843e-10 M=0.404011 N=2 RS=0.121017 TT=1n VJ=0.4 XTI=0.528448)
.MODEL 8EWS08 D(BV=800 CJO=1e-11 EG=1.28885 FC=0.5 IBV=0.0001 IS=1.04304e-7 M=0.5 N=2 RS=0.0103888 TT=1n VJ=0.7 XTI=3.00461)
.MODEL 8EWS10 D(BV=1000 CJO=1e-11 EG=1.29966 FC=0.5 IBV=0.0001 IS=1.17378e-7 M=0.5 N=2 RS=0.0104837 TT=1n VJ=0.7 XTI=3.06473)
.MODEL 8EWS12 D(BV=1200 CJO=1e-11 EG=0.6 FC=0.5 IBV=0.0001 IS=1e-7 M=0.5 N=1.9747 RS=0.0115955 TT=1n VJ=0.7 XTI=0.5)
.MODEL 90CLQ100 D(BV=100 CJO=3.07785n EG=1.3 FC=0.5 IBV=0.0001 IS=0.00032603 M=0.479989 N=2 RS=0.00931445 TT=0 VJ=0.4 XTI=0.5)
.MODEL AA112 D(CJO=1.2p EG=0.69 IS=1.2u N=1.4 RS=80 TT=18n TYPE=germanium)
.MODEL AEG_AA112 D(BV=20 CJO=1p EG=0.67 FC=0.5 IBV=0.0022 IS=2.777779u M=0.5 N=2.172326 RS=35.67365 TT=1p TYPE=germanium VJ=1)
.MODEL AEG_AA117 D(BV=115 CJO=1p EG=0.67 FC=0.5 IBV=0.006 IBVL=0.00007 IKF=0.03 IS=0.00001111111 ISR=0.000001581139 M=0.5 N=3.542911 NBV=14.78 NBVL=22.17001 NR=29.56001 RS=46.02731 TT=1p TYPE=germanium VJ=0.5 XTI=3.012615)
.MODEL AL307 D(CJO=5P EG=1.43 IS=5.493858e-21 MFG=USSR N=1.41399 RS=46.6023 TT=5U TYPE=LED VJ=750M)
.MODEL AOT-2015 D(CJO=0.5n IAVE=175mA IS=5.961e-10 MFG=AOT N=6.222 RS=1.07 TYPE=LED VPK=5 XTI=200)
.MODEL APT1608SURCK D(BV=5 CJO=35pF EG=2.26 IAVE=30mA IBV=10u IS=2.01e-17 M=0.431 MFG=Kingbright N=2.139 RS=2 TYPE=LED VJ=2.32 VPK=5 XTI=3)
.MODEL B0520WS D(BV=20 CJO=170p IAVE=0.5A IBV=250u IS=1.96u M=0.333 MFG=Diodes_Inc N=0.907 RS=0.131 TT=7.2n TYPE=Schottky VPK=20V)
.MODEL B520C D(CJO=300p IAVE=5 IKF=2 IS=200u ISR=200u MFG=Diodes_Inc. N=1.7 NR=2 RS=8m TYPE=Schottky VPK=20)
.MODEL B530C D(CJO=300p IAVE=5 IKF=2 IS=200u ISR=200u MFG=Diodes_Inc. N=1.7 NR=2 RS=8m TYPE=Schottky VPK=30)
.MODEL B540C D(CJO=300p IAVE=5 IKF=2 IS=200u ISR=200u MFG=Diodes_Inc. N=1.7 NR=2 RS=8m TYPE=Schottky VPK=40)
.MODEL B550C D(CJO=300p IAVE=5 IKF=10 IS=20u ISR=100u MFG=Diodes_Inc. N=1.7 NR=2 RS=25m TYPE=Schottky VPK=50)
.MODEL B560C D(CJO=300p IAVE=5 IKF=10 IS=20u ISR=100u MFG=Diodes_Inc. N=1.7 NR=2 RS=25m TYPE=Schottky VPK=60)
.MODEL BAS116 D(BV=75 CJO=1.83p EG=1.11 FC=0.5 IBV=100u IS=1.48e-13 M=0.262 N=1.33 RS=0.848 TT=8.66n TYPE=silicon VJ=0.344 XTI=3)
.MODEL BAS21 D(BV=200 CJO=2.98p IAVE=0.4A IBV=100n IS=41.7n M=0.333 MFG=DiodesInc N=2.35 RS=0.27 TT=72n TYPE=silicon VPK=200V)
.MODEL BAS216 D(BV=113.6 CJO=5.9363e-13 IBV=10 IKF=0.037638 IS=6.0289e-9 ISR=2.0646e-9 M=0.1 MFG=Philips N=2.1283 NR=4.995 RS=0.001 TT=4.5n TYPE=silicon VJ=0.68774)
.MODEL BAS316 D(BV=113.6 CJO=593.63f IAVE=200m IBV=10 IKF=37.638m IS=6.0289n ISR=2.0646n M=0.1 MFG=NXP N=2.1283 NR=4.995 RS=1m TT=4.5n TYPE=silicon VJ=0.68774 VPK=75)
.MODEL BAS516 D(BV=130.38 CJO=383.41f IBV=10 IKF=0.085491m IS=2.9891n ISR=6.8038n M=0.1 N=1.9303 NR=4.995 RS=0.78115 TT=3.0297n VJ=9.99)
.MODEL BAS70 D(BV=70 CJO=1.55p EG=0.68 FC=0.5 IBV=100n IS=3n M=0.29 N=1.06 RS=29 TT=25p TYPE=Schottky VJ=0.36 VPK=70 XTI=1.8)
.MODEL BAS81 D(BV=100 CJO=1.8p EG=1.11 FC=0.5 IBV=100u IKF=914.9u IS=86.03n ISR=1.58e-29 M=0.3333 N=1.678 NR=6.116 RS=11.45 TT=5n TYPE=Schottky VJ=0.75 XTI=3)
.MODEL BAT46WJ D(BV=75 CJO=35p EG=0.69 IAVE=0.25 IBV=1.055u IS=0.1703u M=0.5 MFG=Philips N=1.06 RS=1.3 TYPE=Schottky VJ=0.4 VPK=100 XTI=2)
.MODEL BAT54 D(CJO=12p EG=0.69 IAVE=300m IS=0.1u M=0.3 MFG=Vishay N=1 RS=2.2 TYPE=Schottky VPK=30 XTI=2)
.MODEL BB112 D(BV=100 CJO=2.324n FC=0.5 IBV=0.0001 IS=1e-14 M=0.9 MFG=Philips RS=0.0011 TT=5n TYPE=varactor VJ=0.75 XTI=3)
.MODEL BB119 D(BV=100 CJO=4.163e-11 EG=1.11 FC=0.5 IBV=0.0001 IS=1.122e-17 M=0.3333 MFG=Philips N=1 RS=0.0011 TNOM=27 TT=5n TYPE=varactor VJ=0.75 XTI=3)
.MODEL BB130 D(BV=100 CJO=5.563e-11 EG=1.11 FC=0.5 IBV=0.0001 IS=1e-14 M=0.3333 MFG=Philips N=1 RS=0.0011 TNOM=27 TT=5n TYPE=varactor VJ=0.75 XTI=3)
.MODEL BB133 D(BV=30 CJO=53.493515P IBV=100P IS=10F M=1 RS=1M TYPE=varactor VJ=1.931292)
.MODEL BB204B D(BV=100 CJO=7.783e-11 EG=1.11 FC=0.5 IBV=0.0001 IS=1e-14 M=0.4705 MFG=Philips N=1 RS=0.0011 TNOM=27 TT=5n TYPE=varactor VJ=0.75 XTI=3)
.MODEL BB204G D(BV=100 CJO=8.431e-11 EG=1.11 FC=0.5 IBV=0.0001 IS=1e-14 M=0.4711 MFG=Philips N=1 RS=0.0011 TNOM=27 TT=5n TYPE=varactor VJ=0.75 XTI=3)
.MODEL BB212 D(BV=100 CJO=7.202e-10 FC=0.5 IBV=0.0001 IS=1e-14 M=0.9 MFG=Philips RS=0.0011 TT=5n TYPE=varactor VJ=0.1 XTI=3)
.MODEL BB215 D(BV=100 CJO=3.249e-11 EG=1.11 FC=0.5 IBV=0.0001 IS=1e-14 M=0.7646 MFG=Philips N=1 RS=0.0011 TNOM=27 TT=5n TYPE=varactor VJ=0.75 XTI=3)
.MODEL BB219 D(BV=100 CJO=6.351e-11 EG=1.11 FC=0.5 IBV=0.0001 IS=1e-14 M=0.8465 MFG=Philips N=1 RS=0.0011 TNOM=27 TT=5n TYPE=varactor VJ=0.75 XTI=3)
.MODEL BB240 D(BV=100 CJO=2.479e-8 EG=1.11 FC=0.5 IBV=0.0001 IS=1e-14 M=0.77 MFG=Philips N=1 RS=0.0011 TNOM=27 TT=5n TYPE=varactor VJ=0.75 XTI=3)
.MODEL BB241 D(BV=100 CJO=1.049e-10 EG=1.11 FC=0.5 IBV=0.0001 IS=1e-14 M=0.9987 MFG=Philips N=1 RS=0.0011 TNOM=27 TT=5n TYPE=varactor VJ=0.75 XTI=3)
.MODEL BB249 D(BV=100 CJO=8.387e-11 EG=1.11 FC=0.5 IBV=0.0001 IS=1e-14 M=0.8022 MFG=Philips N=1 RS=0.0011 TNOM=27 TT=5n TYPE=varactor VJ=0.75 XTI=3)
.MODEL BB405B D(BV=100 CJO=2.673e-11 EG=1.11 FC=0.5 IBV=0.0001 IS=1e-14 M=0.9446 MFG=Philips N=1 RS=0.0011 TNOM=27 TT=5n TYPE=varactor VJ=1.922 XTI=3)
.MODEL BB417 D(BV=100 CJO=5.329e-11 EG=1.11 FC=0.5 IBV=0.0001 IS=1e-14 M=0.9343 MFG=Philips N=1 RS=0.0011 TNOM=27 TT=5n TYPE=varactor VJ=0.75 XTI=3)
.MODEL BB515 D(BV=30.36 CJO=3.412e-11 EG=1.11 FC=0.5 IBV=10 IS=1e-14 M=0.7712 MFG=Philips N=1 RS=0.0011 TNOM=27 TT=5n TYPE=varactor VJ=0.75 XTI=3)
.MODEL BB535/SIE D(BV=32 CJO=2.531e-11 EG=1.11 FC=0.5 IBV=1e-7 IS=1.75e-15 M=1.064 N=1.043 RS=0.06 TT=1.2e-7 TYPE=varactor VJ=3.022 XTI=3)
.MODEL BB545/SIE D(BV=30 CJO=38.264P EG=1.11 FC=0 IBV=0.000005 IS=1.1011e-13 M=0.87698 N=1.2034 RS=0.24545 TT=80N TYPE=varactor VJ=0.91294 XTI=3)
.MODEL BB619 D(BV=30.36 CJO=8.244e-11 EG=1.11 FC=0.5 IBV=10 IS=1e-14 M=0.9376 MFG=Philips N=1 RS=0.0011 TNOM=27 TT=5n TYPE=varactor VJ=0.75 XTI=3)
.MODEL BB620 D(BV=30.36 CJO=1.756e-10 EG=1.11 FC=0.5 IBV=10 IS=1e-14 M=0.9 MFG=Philips N=1 RS=0.0011 TNOM=27 TT=5n TYPE=varactor VJ=0.75 XTI=3)
.MODEL BB639/SIE D(BV=32 CJO=5.588e-11 EG=1.11 FC=0.5 IBV=1e-7 IS=4e-15 M=1.286 N=1.035 RS=0.12 TT=1.6e-7 TYPE=varactor VJ=2.922 XTI=3)
.MODEL BB804 D(BV=30.36 CJO=6.9e-11 EG=1.11 FC=0.5 IBV=10 IS=1e-14 M=0.3333 MFG=Philips N=1 RS=0.0011 TNOM=27 TT=5n TYPE=varactor VJ=0.75 XTI=3)
.MODEL BB804/SIE D(BV=20 CJO=80.6P EG=1.11 FC=0.5 IBV=0.1U IS=48F M=0.47 N=1.13 RS=0.18 TT=137N TYPE=varactor VJ=0.8 XTI=3)
.MODEL BB809 D(BV=30.36 CJO=8.387e-11 EG=1.11 FC=0.5 IBV=10 IS=1e-14 M=0.8022 MFG=Philips N=1 RS=0.0011 TNOM=27 TT=5n TYPE=varactor VJ=0.75 XTI=3)
.MODEL BB811 D(BV=30.36 CJO=1.687e-11 EG=1.11 FC=0.5 IBV=10 IS=1e-14 M=0.7681 MFG=Philips N=1 RS=0.0011 TNOM=27 TT=5n TYPE=varactor VJ=0.75 XTI=3)
.MODEL BB814/SIE D(BV=20 CJO=83.9p EG=1.11 FC=0.5 IBV=100n IS=7f M=0.775 N=1.012 RS=0.18 TT=137n TYPE=varactor VJ=1.6 XTI=3)
.MODEL BB833/SIE D(BV=32 CJO=2.9033e-11 EG=1.11 FC=0.5 IBV=0.000005 IS=4.2156e-14 M=0.90022 N=1.1718 RS=0.10785 TT=1.2e-7 TYPE=varactor VJ=0.39089 XTI=3)
.MODEL BB909A D(BV=100 CJO=3.725e-11 EG=1.11 FC=0.5 IBV=0.0001 IS=1e-14 M=0.9 MFG=Philips N=1 RS=0.0011 TNOM=27 TT=5n TYPE=varactor VJ=10 XTI=3)
.MODEL BB909B D(BV=100 CJO=4.028e-11 EG=1.11 FC=0.5 IBV=0.0001 IS=1e-14 M=0.9 MFG=Philips N=1 RS=0.0011 TNOM=27 TT=5n TYPE=varactor VJ=10 XTI=3)
.MODEL BB910 D(BV=100 CJO=5.92e-11 EG=1.11 FC=0.5 IBV=0.0001 IS=1e-14 M=0.8679 MFG=Philips N=1 RS=0.0011 TNOM=27 TT=5n TYPE=varactor VJ=0.75 XTI=3)
.MODEL BB911 D(BV=100 CJO=1.049e-10 EG=1.11 FC=0.5 IBV=0.0001 IS=1e-14 M=0.9987 MFG=Philips N=1 RS=0.0011 TNOM=27 TT=5n TYPE=varactor VJ=0.75 XTI=3)
.MODEL BB914/SIE D(BV=20 CJO=7.554e-11 EG=1.11 FC=0.5 IBV=1e-7 IKF=0 IS=1e-14 ISR=1e-10 M=1.161 N=1.02 NR=2 RS=0.28 TT=1.37e-7 TYPE=varactor VJ=3.445 XTI=3)
.MODEL BYW96E D(BV=1200.3 CJO=2.701e-11 IAVE=3 IBV=2.591 IKF=0.566356 IS=0.00005977971 ISR=4.479139e-7 M=0.43978 MFG=Philips N=3.61403 NR=2.54303 RS=0.052308 TT=2.9554e-7 TYPE=Silicon VJ=0.81612 VPK=1000)
.MODEL BZX384B10 D(BV=10 CJO=6.004e-11 FC=0.5 IAVE=250M IBV=0.005 IS=1.13e-14 M=0.3302 MFG=NXP N=1.103 RS=0.4798 TYPE=ZENER VJ=0.6305 VPK=10)
.MODEL BZX384B11 D(BV=11 CJO=5.404e-11 FC=0.5 IAVE=250M IBV=0.005 IS=1.13e-14 M=0.3295 MFG=NXP N=1.103 RS=0.4798 TYPE=ZENER VJ=0.5891 VPK=11)
.MODEL BZX384B12 D(BV=12 CJO=4.928e-11 FC=0.5 IAVE=250M IBV=0.005 IS=1.13e-14 M=0.3292 MFG=NXP N=1.103 RS=0.4798 TYPE=ZENER VJ=0.575 VPK=12)
.MODEL BZX384B13 D(BV=13 CJO=4.377e-11 FC=0.5 IAVE=250M IBV=0.005 IS=1.13e-14 M=0.3289 MFG=NXP N=1.103 RS=0.4798 TYPE=ZENER VJ=0.5656 VPK=13)
.MODEL BZX384B15 D(BV=15 CJO=4.023e-11 FC=0.5 IAVE=250M IBV=0.005 IS=1.13e-14 M=0.3297 MFG=NXP N=1.103 RS=0.4798 TYPE=ZENER VJ=0.6144 VPK=15)
.MODEL BZX384B16 D(BV=16 CJO=3.509e-11 FC=0.5 IAVE=250M IBV=0.005 IS=1.13e-14 M=0.3378 MFG=NXP N=1.103 RS=0.4798 TYPE=ZENER VJ=0.6502 VPK=16)
.MODEL BZX384B18 D(BV=18 CJO=3.17e-11 FC=0.5 IAVE=250M IBV=0.005 IS=1.13e-14 M=0.3327 MFG=NXP N=1.103 RS=0.4798 TYPE=ZENER VJ=0.6421 VPK=18)
.MODEL BZX384B20 D(BV=20 CJO=2.915e-11 FC=0.5 IAVE=250M IBV=0.005 IS=1.13e-14 M=0.3362 MFG=NXP N=1.103 RS=0.4798 TYPE=ZENER VJ=0.635 VPK=20)
.MODEL BZX384B22 D(BV=22 CJO=2.701e-11 FC=0.5 IAVE=250M IBV=0.005 IS=1.13e-14 M=0.3557 MFG=NXP N=1.103 RS=0.4798 TYPE=ZENER VJ=0.7087 VPK=22)
.MODEL BZX384B24 D(BV=24 CJO=2.48e-11 FC=0.5 IAVE=250M IBV=0.002 IS=1.13e-14 M=0.3513 MFG=NXP N=1.103 RS=0.4798 TYPE=ZENER VJ=0.7142 VPK=24)
.MODEL BZX384B27 D(BV=27 CJO=2.233e-11 FC=0.5 IAVE=250M IBV=0.002 IS=1.13e-14 M=0.3546 MFG=NXP N=1.103 RS=0.4798 TYPE=ZENER VJ=0.7107 VPK=27)
.MODEL BZX384B2V4 D(BV=2.4 CJO=3.615e-10 FC=0.5 IAVE=250M IBV=0.005 IS=1.033e-15 M=0.2715 MFG=NXP N=1.001 RS=0.387 TYPE=ZENER VJ=0.5762 VPK=2.4)
.MODEL BZX384B2V7 D(BV=2.7 CJO=3.518e-10 FC=0.5 IAVE=250M IBV=0.005 IS=1.033e-15 M=0.3174 MFG=NXP N=1.001 RS=0.387 TYPE=ZENER VJ=0.6816 VPK=2.7)
.MODEL BZX384B30 D(BV=30 CJO=2.17e-11 FC=0.5 IAVE=250M IBV=0.002 IS=1.13e-14 M=0.3465 MFG=NXP N=1.103 RS=0.4798 TYPE=ZENER VJ=0.6718 VPK=30)
.MODEL BZX384B33 D(BV=33 CJO=2.019e-11 FC=0.5 IAVE=250M IBV=0.002 IS=1.13e-14 M=0.3782 MFG=NXP N=1.103 RS=0.4798 TYPE=ZENER VJ=0.7645 VPK=33)
.MODEL BZX384B36 D(BV=36 CJO=1.866e-11 FC=0.5 IAVE=250M IBV=0.002 IS=1.13e-14 M=0.3771 MFG=NXP N=1.103 RS=0.4798 TYPE=ZENER VJ=0.7591 VPK=36)
.MODEL BZX384B39 D(BV=39 CJO=1.772e-11 FC=0.5 IAVE=250M IBV=0.002 IS=1.13e-14 M=0.3751 MFG=NXP N=1.103 RS=0.4798 TYPE=ZENER VJ=0.7471 VPK=39)
.MODEL BZX384B3V0 D(BV=3 CJO=3.346e-10 FC=0.5 IAVE=250M IBV=0.005 IS=1.033e-15 M=0.3162 MFG=NXP N=1.001 RS=0.387 TYPE=ZENER VJ=0.6722 VPK=3)
.MODEL BZX384B3V3 D(BV=3.3 CJO=3.162e-10 FC=0.5 IAVE=250M IBV=0.005 IS=1.033e-15 M=0.3164 MFG=NXP N=1.001 RS=0.387 TYPE=ZENER VJ=0.6687 VPK=3.3)
.MODEL BZX384B3V6 D(BV=3.6 CJO=3.062e-10 FC=0.5 IAVE=250M IBV=0.005 IS=1.033e-15 M=0.3168 MFG=NXP N=1.001 RS=0.387 TYPE=ZENER VJ=0.6643 VPK=3.6)
.MODEL BZX384B3V9 D(BV=3.9 CJO=2.82e-10 FC=0.5 IAVE=250M IBV=0.005 IS=1.033e-15 M=0.3219 MFG=NXP N=1.001 RS=0.387 TYPE=ZENER VJ=0.6743 VPK=3.9)
.MODEL BZX384B43 D(BV=43 CJO=1.638e-11 FC=0.5 IAVE=250M IBV=0.002 IS=1.13e-14 M=0.3762 MFG=NXP N=1.103 RS=0.4798 TYPE=ZENER VJ=0.7517 VPK=43)
.MODEL BZX384B47 D(BV=47 CJO=1.707e-11 FC=0.5 IAVE=250M IBV=0.002 IS=1.13e-14 M=0.4248 MFG=NXP N=1.103 RS=0.4798 TYPE=ZENER VJ=0.888 VPK=47)
.MODEL BZX384B4V3 D(BV=4.3 CJO=2.715e-10 FC=0.5 IAVE=250M IBV=0.005 IS=1.033e-15 M=0.3557 MFG=NXP N=1.001 RS=0.387 TYPE=ZENER VJ=0.7721 VPK=4.3)
.MODEL BZX384B4V7 D(BV=4.7 CJO=2.589e-10 FC=0.5 IAVE=250M IBV=0.005 IS=1.033e-15 M=0.3636 MFG=NXP N=1.001 RS=0.387 TYPE=ZENER VJ=0.8029 VPK=4.7)
.MODEL BZX384B51 D(BV=51 CJO=1.602e-11 FC=0.5 IAVE=250M IBV=0.002 IS=1.13e-14 M=0.4154 MFG=NXP N=1.103 RS=0.4798 TYPE=ZENER VJ=0.8454 VPK=51)
.MODEL BZX384B56 D(BV=56 CJO=1.508e-11 FC=0.5 IAVE=250M IBV=0.002 IS=1.13e-14 M=0.4177 MFG=NXP N=1.103 RS=0.4798 TYPE=ZENER VJ=0.8856 VPK=56)
.MODEL BZX384B5V1 D(BV=5.1 CJO=2.402e-10 FC=0.5 IAVE=250M IBV=0.005 IS=1.033e-15 M=0.3578 MFG=NXP N=1.001 RS=0.387 TYPE=ZENER VJ=0.7934 VPK=5.1)
.MODEL BZX384B5V6 D(BV=5.6 CJO=1.961e-10 FC=0.5 IAVE=250M IBV=0.005 IS=1.033e-15 M=0.423 MFG=NXP N=1.001 RS=0.387 TYPE=ZENER VJ=0.9187 VPK=5.6)
.MODEL BZX384B62 D(BV=62 CJO=1.403e-11 FC=0.5 IAVE=250M IBV=0.002 IS=1.13e-14 M=0.4033 MFG=NXP N=1.103 RS=0.4798 TYPE=ZENER VJ=0.8053 VPK=62)
.MODEL BZX384B68 D(BV=68 CJO=1.321e-11 FC=0.5 IAVE=250M IBV=0.002 IS=1.13e-14 M=0.4021 MFG=NXP N=1.103 RS=0.4798 TYPE=ZENER VJ=0.7877 VPK=68)
.MODEL BZX384B6V2 D(BV=6.2 CJO=1.732e-10 FC=0.5 IAVE=250M IBV=0.005 IS=1.033e-15 M=0.4321 MFG=NXP N=1.001 RS=0.387 TYPE=ZENER VJ=0.9334 VPK=6.2)
.MODEL BZX384B6V8 D(BV=6.8 CJO=1.519e-10 FC=0.5 IAVE=250M IBV=0.005 IS=1.033e-15 M=0.4027 MFG=NXP N=1.001 RS=0.387 TYPE=ZENER VJ=0.9041 VPK=6.8)
.MODEL BZX384B75 D(BV=75 CJO=1.246e-11 FC=0.5 IAVE=250M IBV=0.002 IS=1.13e-14 M=0.4052 MFG=NXP N=1.103 RS=0.4798 TYPE=ZENER VJ=0.822 VPK=75)
.MODEL BZX384B7V5 D(BV=7.5 CJO=8.767e-11 FC=0.5 IAVE=250M IBV=0.005 IS=1.13e-14 M=0.3299 MFG=NXP N=1.103 RS=0.4798 TYPE=ZENER VJ=0.5829 VPK=7.5)
.MODEL BZX384B8V2 D(BV=8.2 CJO=7.562e-11 FC=0.5 IAVE=250M IBV=0.005 IS=1.13e-14 M=0.3298 MFG=NXP N=1.103 RS=0.4798 TYPE=ZENER VJ=0.5765 VPK=8.2)
.MODEL BZX384B9V1 D(BV=9.1 CJO=7.316e-11 FC=0.5 IAVE=250M IBV=0.005 IS=1.13e-14 M=0.3295 MFG=NXP N=1.103 RS=0.4798 TYPE=ZENER VJ=0.5667 VPK=9.1)
.MODEL BZX79C6V8 D(BV=6.948 CJO=95.65p IBV=0.8623 IKF=6.51 IS=2.471n ISR=1.001e-20 M=0.3487 N=2.088 RS=1m TT=140n TYPE=zener VJ=0.7022)
.MODEL BZX84C10L D(BV=10 CJO=150p IBV=1m IS=0.6n MFG=OnSemi NBV=5 RS=0.5 TYPE=Zener VPK=10)
.MODEL BZX84C12L D(BV=12 CJO=150p IBV=1m IS=0.6n MFG=OnSemi NBV=5 RS=0.5 TYPE=Zener VPK=12)
.MODEL BZX84C15L D(BV=15 CJO=110p IBV=1m IS=0.6n MFG=OnSemi NBV=6 RS=0.5 TYPE=Zener VPK=15)
.MODEL BZX84C18V D(BV=18.118 CJO=2.4981e-11 IBV=0.56589 IKF=149.75 IS=1.1088e-16 ISR=3.6794e-11 M=0.331 MFG=Philips N=0.92657 RS=0.85899 TT=0.00000277 TYPE=zener VJ=0.64091)
.MODEL BZX84C2V7 D(BV=2.766 CJO=3.121e-10 EG=1.11 FC=0.5 IBV=0.06476 IKF=1 IS=3.677e-15 M=0.2052 MFG=Philips N=1.059 RS=0.12 TBV1=-0.00056 TT=5.771e-8 TYPE=zener VJ=0.3971 VPK=2.7 XTI=3)
.MODEL BZX84C3V0 D(BV=3.066 CJO=2.915e-10 EG=1.11 FC=0.5 IBV=0.06476 IKF=1 IS=4.311e-15 M=0.2719 MFG=Philips N=1.057 RS=0.12 TBV1=-0.0005 TT=6.492e-8 TYPE=zener VJ=0.5248 VPK=3 XTI=3)