* Copyright (c) 2000-2021 Analog Devices, Inc. All rights reserved.
*

.MODEL 2N1132 NPN(BF=55.9464 BR=1.55171 CJC=175.838P CJE=104.717P IKF=9.98401K IKR=9.99993M IS=9.99916F ISC=106.162P ISE=3.62279F ITF=9.68022M MJC=499.794M MJE=499.511M NE=1.10688 NF=998.061M RC=5.64395 RE=3.44553 TF=2.66025N TR=10N VAF=100 VJC=699.998M VJE=700.004M VTF=10 XTF=500.005M)
.MODEL 2N1711 NPN(BF=146.604 BR=6.50271 CJC=1.8145e-11 CJE=6.12932e-11 EG=1.11 FC=0.5 IKF=1.47556 IKR=0.396801 IS=5.80495e-14 ISC=7.02023f ISE=5.00431e-16 MJC=0.358852 MJE=0.34929 NC=1.01086 NE=1.17121 NF=1.00578 NR=1.00234 RB=61.0257 RC=1.16875 RE=0.0649012 TF=2.273642n VAF=430.283 VAR=29.3468 VJC=0.490763 VJE=0.718394 XTF=1 XTI=3)
.MODEL 2N2102 NPN(BF=79.3546 BR=3.76239 CJC=1.3035e-11 CJE=1e-11 CJS=0 EG=1.05 FC=0.5 IKF=0.640083 IKR=2.76346 IRB=0.1 IS=1.1791e-10 ISC=3.24999e-13 ISE=7.91563p ITF=0.01 MJC=0.23 MJE=0.33 MJS=0.5 NC=3.96875 NE=3.31476 NF=1.42901 NR=1.5 PTF=0 RB=0.1 RBM=0.1 RC=0.38569 RE=0.00431604 TF=1n TR=1e-7 VAF=30.134 VAR=3.69384 VJC=0.62509 VJE=0.75 VJS=0.75 VTF=10 XCJC=0.9 XTB=0.1 XTF=1 XTI=1)
.MODEL 2N2219A NPN(BF=255.9 BR=6.092 CJC=7.306p CJE=22.01p EG=1.11 FC=0.5 ICRATING=800m IKF=0.2847 IKR=0 IS=14.34f ISC=0 ISE=14.34f ITF=0.6 MFG=Philips MJC=0.3416 MJE=0.377 NC=2 NE=1.307 RB=10 RC=1 TF=411.1p TR=46.91n VAF=74.03 VCEO=40 VJC=0.75 VJE=0.75 VTF=1.7 XTB=1.5 XTF=3 XTI=3)
.MODEL 2N2222 NPN(BF=200 BR=3 CJC=8e-12 CJE=2.5e-11 ICRATING=800m IKF=0.3 IS=1e-14 ITF=1 MFG=Philips RB=10 RC=0.3 RE=0.2 TF=4e-10 TR=1e-7 VAF=100 VCEO=30 VTF=2 XTB=1.5 XTF=3)
.MODEL 2N2222A NPN(BF=255.9 BR=6.092 CJC=7.306p CJE=22.01p EG=1.11 FC=0.5 ICRATING=800m IKF=0.2847 IKR=0 IS=14.34f ISC=0 ISE=14.34f ITF=0.6 MFG=Fairchild MJC=0.3416 MJE=0.377 NC=2 NE=1.307 RB=10 RC=1 TF=411.1p TR=46.91n VAF=74.03 VCEO=40 VJC=0.75 VJE=0.75 XTB=1.5 XTF=3 XTI=3)
.MODEL 2N2369 NPN(BF=78.32 BR=12.69m CJC=2.83p CJE=4.5p EG=1.11 FC=0.5 ICRATING=200m IKF=0.3498 IKR=0 IS=44.14f ISC=0 ISE=91.95f ITF=0.3 MFG=Philips MJC=86.19m MJE=0.2418 NC=2 NE=1.389 RB=10 RC=0.6 TF=227.6p TR=1.073u VAF=100 VCEO=15 VJC=0.75 VJE=0.75 VTF=4 XTB=1.5 XTF=4 XTI=3)
.MODEL 2N242 PNP(BF=156 BR=4 CJC=315P CJE=1.07N ICRATING=5 IKF=3 IKR=4.5 IS=524N ISE=330N MFG=Germanium-type NE=2 NF=1 NR=1 RB=0.763 RC=76.3M RE=0.19 TF=1.5U TR=3u VAF=106 VAR=40 VCEO=35 XTB=1.5)
.MODEL 2N2484 NPN(BF=697.1 BR=1.297 CJC=4.017p CJE=4.973p EG=1.11 FC=0.5 ICRATING=50m IKF=13.93m IKR=0 IS=5.911f ISC=0 ISE=5.911f ITF=0.35 MFG=NSC MJC=0.3174 MJE=0.4146 NC=2 NE=1.342 NF=1 NR=1 RB=10 RC=1.61 RE=0.15 TF=820.4p TR=4.687n VAF=62.37 VAR=21.5 VCEO=60 VJC=0.65 VJE=0.65 VTF=4 XCJC=0.75 XTB=1.5 XTF=7 XTI=3)
.MODEL 2N2905 PNP(BF=231.7 BR=3.563 CJC=14.76p CJE=19.82p EG=1.11 FC=0.5 ICRATING=600M IKF=1.079 IKR=0 IS=6.506e-16 ISC=0 ISE=54.81f ITF=0.65 MFG=PHILIPS MJC=0.5383 MJE=0.3357 NC=2 NE=1.829 NF=1 NR=1 RB=10 RC=0.715 RE=0.15 TF=603.7p TR=111.3n VAF=115.7 VAR=35 VCEO=40 VJC=0.65 VJE=0.65 VTF=5 XCJC=0.75 XTB=1.5 XTF=1.7 XTI=3)
.MODEL 2N2905A PNP(BF=231.7 BR=3.563 CJC=14.76p CJE=19.82p EG=1.11 FC=0.5 ICRATING=600m IKF=1.079 IKR=0 IS=6.506e-16 ISC=0 ISE=54.81f ITF=0.65 MFG=Philips MJC=0.5383 MJE=0.3357 NC=2 NE=1.829 RB=10 RC=0.715 TF=603.7p TR=111.3n VAF=115.7 VCEO=60 VJC=0.75 VJE=0.75 VTF=5 XTB=1.5 XTF=1.7 XTI=3)
.MODEL 2N2907 PNP(BF=250 BR=3 CJC=8e-12 CJE=3e-11 ICRATING=600m IKF=0.3 IS=1e-14 ITF=1 MFG=Philips RB=10 RC=0.3 RE=0.2 TF=4e-10 TR=1e-7 VAF=120 VCEO=40 VTF=2 XTB=1.5 XTF=3)
.MODEL 2N2907P PNP(BF=231.7 BR=3.563 CJC=14.76p CJE=19.82p EG=1.11 FC=0.5 ICRATING=600M IKF=1.079 IKR=0 IS=6.506e-16 ISC=0 ISE=54.81f ITF=0.65 MFG=NSC-PHILIPS MJC=0.5383 MJE=0.3357 NC=2 NE=1.829 NF=1 NR=1 RB=10 RC=0.715 RE=0.15 TF=603.7p TR=111.3n VAF=115.7 VAR=35 VCEO=40 VJC=0.65 VJE=0.65 VTF=5 XCJC=0.75 XTB=1.5 XTF=1.7 XTI=3)
.MODEL 2N2907S PNP(BF=308 BR=21.8 CJC=1.93e-11 CJE=2.66e-11 EG=1.11 FC=0.5 ICRATING=5 IKF=0.842 IKR=1 IRB=0.0125 IS=2.32e-13 ISC=1.65e-13 ISE=6.69e-16 ITF=0.336 MFG=SIEMENS MJC=0.465 MJE=0.46 NC=1.13 NE=1.09 NF=1.04 NR=1.12 RB=40.2 RBM=0.01 RC=0.846 RE=0.01 TF=4.95e-10 TR=0 VAF=141 VAR=13.5 VCEO=80 VJC=0.3 VJE=0.349 VTF=6.54 XTB=1.5 XTF=18.7 XTI=3)
.MODEL 2N2955 PNP(BF=360 BR=2 CJC=2.121e-10 CJE=5.802e-10 ICRATING=15 IKF=0.25 IRB=0.001 IS=4.66p ISC=5e-9 ISE=3.339e-11 ITF=3 MJC=0.4 MJE=0.45 PTF=120 RB=3 RBM=0.4 RC=0.04 TF=8e-8 TR=2.55u VAF=100 VCEO=70 VJE=1.2 XTB=1 XTF=1)
.MODEL 2N3019 NPN(BF=200 BR=5 CJC=16p CJE=55p ICRATING=1 IKF=0.75 IS=14f ITF=1.2 MFG=Semicoa MJC=0.36 MJE=0.1553 RB=10 RC=0.7 TF=800p TR=800p VAF=100 VCEO=80 VTF=5 XTB=1.5 XTF=55)
.MODEL 2N3053 NPN(BF=260 BR=4 CJC=25.5P CJE=79.2P ICRATING=700M IKF=0.42 IKR=0.63 IS=71.1F ISE=27.3P MFG=Motorola MJC=0.3 MJE=0.5 NE=2 NF=1 NR=1 RB=0.294 RC=29.4M RE=73.6M TF=858P TR=596N VAF=113 VAR=20 VCEO=40 VJC=0.3 VJE=1.1 XTB=1.5)
.MODEL 2N3055 NPN(BF=73 BR=2.66 CJC=1000P CJE=415P ICRATING=10 IK=1 IS=2.37e-8 MC=0.33 ME=0.5 MFG=STMicro NE=1.26 PC=0.75 PE=0.75 RB=0.81 RC=0.0856 RE=0.000856 TF=99.52N TR=0.5703U VCEO=60)
.MODEL 2N3055H NPN(BF=129.119 BR=1.01252 CJC=5e-10 CJE=9.03089e-8 EG=1.206 FC=0.661216 ICRATING=15 IKF=0.990922 IKR=2.70227 IRB=0.1 IS=2.37426e-14 ISC=2.47498e-10 ISE=2.47498e-10 ITF=0.987296 MFG=Motorola MJC=0.410238 MJE=0.59999 NC=2.90624 NE=1.89002 NF=0.85 NR=0.924456 RB=3.66609 RBM=0.1 RC=0.0764459 RE=0.000352673 TF=1e-8 TR=1e-7 VAF=31.1252 VAR=254.624 VCEO=60 VJC=0.400243 VJE=0.513954 VTF=1.02605 XCJC=0.803124 XTB=1.34801 XTF=1.36696 XTI=1.07207)
.MODEL 2N3390 NPN(BF=685.8 BR=4.379 CJC=5.777p CJE=8.307p EG=1.11 FC=0.5 ICRATING=100m IKF=0.1072 IKR=0 IS=12.03f ISC=0 ISE=1.842p ITF=0.17 MFG=NSC MJC=0.3199 MJE=0.384 NC=2 NE=1.971 NF=1 NR=1 RB=10 RC=1 RE=0.1 TF=385.4p TR=685.3p VAF=37.37 VAR=12.5 VCEO=25 VJC=0.65 VJE=0.65 VTF=3 XCJC=0.75 XTB=1.5 XTF=8 XTI=3)
.MODEL 2N3391A NPN(BF=427.8 BR=4.379 CJC=5.777p CJE=8.307p EG=1.11 FC=0.5 ICRATING=500m IKF=0.1072 IKR=0 IS=12.03f ISC=0 ISE=2.953p ITF=0.17 MFG=Fairchild MJC=0.3199 MJE=0.384 NC=2 NE=1.971 RB=10 RC=1 TF=385.4p TR=701.7p VAF=37.37 VCEO=25 VJC=0.75 VJE=0.75 VTF=3 XTB=1.5 XTF=8 XTI=3)
.MODEL 2N3392 NPN(BF=254.8 BR=4.379 CJC=5.777p CJE=8.307p EG=1.11 FC=0.5 ICRATING=100m IKF=0.1072 IKR=0 IS=12.03f ISC=0 ISE=4.958p ITF=0.17 MFG=NSC MJC=0.3199 MJE=0.384 NC=2 NE=1.971 NF=1 NR=1 RB=10 RC=1 RE=0.1 TF=385.4p TR=732.1p VAF=37.37 VAR=12.5 VCEO=25 VJC=0.65 VJE=0.65 VTF=3 XCJC=0.75 XTB=1.5 XTF=8 XTI=3)
.MODEL 2N3393 NPN(BF=154.1 BR=4.379 CJC=5.777p CJE=8.307p EG=1.11 FC=0.5 ICRATING=100M IKF=0.1072 IKR=0 IS=12.03f ISC=0 ISE=8.195p ITF=0.17 MFG=NSC MJC=0.3199 MJE=0.384 NC=2 NE=1.971 NF=1 NR=1 RB=10 RC=1 RE=0.1 TF=385.4p TR=783.8p VAF=37.37 VAR=12.5 VCEO=25 VJC=0.65 VJE=0.65 VTF=3 XCJC=0.75 XTB=1.5 XTF=8 XTI=3)
.MODEL 2N3415 NPN(BF=377.5 BR=4.379 CJC=5.777p CJE=8.307p EG=1.11 FC=0.5 ICRATING=500m IKF=0.1072 IKR=0 IS=12.03f ISC=0 ISE=3.346p ITF=0.17 MFG=NSC MJC=0.3199 MJE=0.384 NC=2 NE=1.971 NF=1 NR=1 RB=10 RC=1 RE=0.1 TF=385.4p TR=707.6p VAF=37.37 VAR=12.5 VCEO=25 VJC=0.65 VJE=0.65 VTF=3 XCJC=0.75 XTB=1.5 XTF=8 XTI=3)
.MODEL 2N3416 NPN(BF=157.3 BR=4.379 CJC=5.777p CJE=8.307p EG=1.11 FC=0.5 ICRATING=500m IKF=0.1072 IKR=0 IS=12.03f ISC=0 ISE=8.031p ITF=0.17 MFG=NSC MJC=0.3199 MJE=0.384 NC=2 NE=1.971 NF=1 NR=1 RB=10 RC=1 RE=0.1 TF=385.4p TR=781.1p VAF=37.37 VAR=12.5 VCEO=50 VJC=0.65 VJE=0.65 VTF=3 XCJC=0.75 XTB=1.5 XTF=8 XTI=3)
.MODEL 2N3417 NPN(BF=377.5 BR=4.379 CJC=5.777p CJE=8.307p EG=1.11 FC=0.5 ICRATING=500M IKF=0.1072 IKR=0 IS=12.03f ISC=0 ISE=3.346p ITF=0.17 MFG=NSC MJC=0.3199 MJE=0.384 NC=2 NE=1.971 NF=1 NR=1 RB=10 RC=1 RE=0.1 TF=385.4p TR=707.6p VAF=37.37 VAR=12.5 VCEO=50 VJC=0.65 VJE=0.65 VTF=3 XCJC=0.75 XTB=1.5 XTF=8 XTI=3)
.MODEL 2N3439 NPN(BF=1.557K BR=10.22 CJC=24.28p CJE=105.8p EG=1.11 FC=0.5 ICRATING=1 IKF=38.4m IKR=0 IS=2.644p ISC=0 ISE=5.292p ITF=5 MFG=Motorola MJC=0.4169 MJE=0.3681 NC=2 NE=1.305 RB=10 RC=6 TF=2.033n TR=303.6n VAF=100 VCEO=350 VJC=0.75 VJE=0.75 VTF=10 XTB=1.5 XTF=20 XTI=3)
.MODEL 2N3439_ NPN(BF=217.608 BR=1.16323 CJC=1.89145e-11 CJE=1.17247e-10 EG=1.206 FC=0.8 ICRATING=1 IKF=1.16129 IKR=10 IRB=0.1 IS=4.95669e-14 ISC=7.22363p ISE=7.22363e-12 ITF=0.608387 MJC=0.30394 MJE=0.306342 NC=3.89846 NE=2.22456 NF=0.989177 NR=0.965806 PTF=0 RB=14.7195 RBM=0.1 RC=0.408396 RE=0.00296577 TF=5.70574e-9 TR=100n VAF=144.204 VAR=35.1857 VCEO=350 VJC=0.501432 VJE=0.4 VTF=3.89508 XCJC=0.1 XTB=1.32969 XTF=1000 XTI=4)
.MODEL 2N344 PNP(BF=22 CJC=2.5p CJE=5p EG=0.67 IS=100p MFG=GERMANIUM-TYPE RB=100 RE=10 TF=3n VAF=15)
.MODEL 2N3506 NPN(BF=116.1 BR=30m CJC=48.58p CJE=256.5p EG=1.11 FC=0.5 IKF=2.36 IKR=1 IS=86.76f ISC=1p ISE=190.9p ITF=1 MJC=0.3333 MJE=0.3333 NC=2 NE=2.064 NK=0.6321 RC=0.2 TF=1.867n TR=2.112u VAF=100 VAR=100 VJC=0.75 VJE=0.75 VTF=10 XTB=1.5 XTF=0 XTI=3)
.MODEL 2N3553 NPN(BF=65.3 BR=5.68 CJC=3.46e-11 CJE=5.36e-11 EG=1.11 FC=0.5 IKF=0.74 IKR=0.0943 IS=1.93e-14 ISC=4.76e-14 ISE=3.16e-13 ITF=0.134 MJC=0.42 MJE=0.266 MJS=0.33 NC=1.14 NE=1.57 NF=1.01 NR=1.01 RB=8.07 RC=0.518 RE=0.0274 TF=2.6e-10 VAF=252 VAR=15.8 VJC=0.583 VJE=0.646 VJS=0.75 VTF=0.1 XTB=0 XTF=0.1 XTI=3)
.MODEL 2N3565 NPN(BF=697.1 BR=1.297 CJC=4.017p CJE=4.973p EG=1.11 FC=0.5 ICRATING=50m IKF=13.93m IKR=0 IS=5.911f ISC=0 ISE=5.911f ITF=0.35 MFG=NSC MJC=0.3174 MJE=0.4146 NC=2 NE=1.342 NF=1 NR=1 RB=10 RC=1.61 RE=0.15 TF=820.4p TR=4.687n VAF=62.37 VAR=21.5 VCEO=30 VJC=0.65 VJE=0.65 VTF=4 XCJC=0.75 XTB=1.5 XTF=7 XTI=3)
.MODEL 2N3585 NPN(BF=247.7 BR=14.99 CJC=146.5p CJE=733.3p EG=1.11 FC=0.5 IKF=0.3138 IKR=0.8443 IS=915f ISC=285.2p ISE=39.59p ITF=6.051 MJC=0.3375 MJE=0.6277 NC=1.423 NE=1.547 NK=0.5973 RC=0.4036 TF=3.962n TR=1.722u VAF=100 VAR=100 VJC=0.3905 VJE=1.878 VTF=10 XTB=2.2 XTF=48.54 XTI=3)
.MODEL 2N3638A PNP(BF=63.49 BR=4.254 CJC=14.76p CJE=19.82p EG=1.11 FC=0.5 ICRATING=500m IKF=1.079 IKR=0 IS=6.506e-16 ISC=0 ISE=200f ITF=0.65 MFG=NSC MJC=0.5383 MJE=0.3357 NC=2 NE=1.829 NF=1 NR=1 RB=10 RC=0.715 RE=0.15 TF=761.3p TR=121.3n VAF=115.7 VAR=35 VCEO=25 VJC=0.65 VJE=0.65 VTF=5 XCJC=0.75 XTB=1.5 XTF=1.7 XTI=3)
.MODEL 2N3640 PNP(BF=59.22 BR=1.438 CJC=2.77p CJE=2.65p EG=1.11 FC=0.5 ICRATING=80m IKF=50m IKR=0 IS=5.456e-16 ISC=0 ISE=0 ITF=0.5 MFG=NSC MJC=0.1416 MJE=0.3083 NC=2 NE=1.5 NF=1 NR=1 RB=10 RC=3.75 RE=0.15 TF=118.5p TR=4.123n VAF=100 VAR=30 VCEO=12 VJC=0.65 VJE=0.65 VTF=3 XCJC=0.75 XTB=1.5 XTF=6 XTI=3)
.MODEL 2N3642 NPN(BF=118.6 BR=7.134 CJC=7.306p CJE=22.01p EG=1.11 FC=0.5 ICRATING=500m IKF=0.2524 IKR=0 IS=14.34f ISC=0 ISE=14.34f ITF=0.6 MFG=NSC MJC=0.3416 MJE=0.377 NC=2 NE=1.236 NF=1 NR=1 RB=10 RC=1 RE=0.1 TF=410.3p TR=50.96n VAF=74.03 VAR=28 VCEO=45 VJC=0.65 VJE=0.65 VTF=1.7 XCJC=0.75 XTB=1.5 XTF=3 XTI=3)
.MODEL 2N3643 NPN(BF=255.9 BR=6.092 CJC=7.306p CJE=22.01p EG=1.11 FC=0.5 ICRATING=500m IKF=0.2847 IKR=0 IS=14.34f ISC=0 ISE=14.34f ITF=0.6 MFG=NSC MJC=0.3416 MJE=0.377 NC=2 NE=1.307 NF=1 NR=1 RB=10 RC=1 RE=0.1 TF=411.1p TR=46.91n VAF=74.03 VAR=28 VCEO=30 VJC=0.65 VJE=0.65 VTF=1.7 XCJC=0.75 XTB=1.5 XTF=3 XTI=3)
.MODEL 2N3645 PNP(BF=231.7 BR=3.563 CJC=14.76p CJE=19.82p EG=1.11 FC=0.5 ICRATING=500m IKF=1.079 IKR=0 IS=6.506e-16 ISC=0 ISE=54.81f ITF=0.65 MFG=NSC MJC=0.5383 MJE=0.3357 NC=2 NE=1.829 NF=1 NR=1 RB=10 RC=0.715 RE=0.15 TF=603.7p TR=111.3n VAF=115.7 VAR=35 VCEO=60 VJC=0.65 VJE=0.65 VTF=5 XCJC=0.75 XTB=1.5 XTF=1.7 XTI=3)
.MODEL 2N3646 NPN(BF=85.99 BR=3.587 CJC=4.256p CJE=8.359p EG=1.11 FC=0.5 ICRATING=200m IKF=0.2617 IKR=0 IS=1.017f ISC=0 ISE=34.11p ITF=0.35 MFG=NSC MJC=0.1053 MJE=0.3504 NC=2 NE=2.048 NF=1 NR=1 RB=10 RC=1.75 RE=0.15 TF=289.3p TR=5.32n VAF=100 VAR=30 VCEO=40 VJC=0.65 VJE=0.65 VTF=5 XCJC=0.75 XTB=1.5 XTF=2 XTI=3)
.MODEL 2N3702 PNP(BF=133.8 BR=3.73 CJC=14.76p CJE=19.82p EG=1.11 FC=0.5 ICRATING=200m IKF=1.081 IKR=0 IS=6.506e-16 ISC=0 ISE=97.16f ITF=0.65 MFG=NSC MJC=0.5383 MJE=0.3357 NC=2 NE=1.832 NF=1 NR=1 RB=10 RC=0.715 RE=0.15 TF=761.3p TR=114.1n VAF=115.7 VAR=35 VCEO=40 VJC=0.65 VJE=0.65 VTF=5 XCJC=0.75 XTB=1.5 XTF=1.7 XTI=3)
.MODEL 2N3703 PNP(BF=66.92 BR=4.197 CJC=14.76p CJE=19.82p EG=1.11 FC=0.5 ICRATING=200m IKF=1.079 IKR=0 IS=6.506e-16 ISC=0 ISE=189.7f ITF=0.65 MFG=NSC MJC=0.5383 MJE=0.3357 NC=2 NE=1.829 NF=1 NR=1 RB=10 RC=0.715 RE=0.15 TF=761.3p TR=120.6n VAF=115.7 VAR=35 VCEO=45 VJC=0.65 VJE=0.65 VTF=5 XCJC=0.75 XTB=1.5 XTF=1.7 XTI=3)
.MODEL 2N3773 NPN(BF=280 BR=1.25 CJC=684.94p CJE=1378.4p EG=1.11 FC=0.5 IKF=1.9 IKR=1.9 IS=1.12p ISC=83n ISE=83.27n ITF=9 MJC=0.3221 MJE=0.4958 NC=2.7 NE=2.7324 NF=1 NR=1 RB=0.6 RBM=0.6 RC=89.3m RE=0.001 TF=48.2n TR=200n VAF=40 VAR=50 VJC=0.7 VJE=0.5 VTF=30 XCJC=0.5 XTB=0.887 XTF=2 XTI=3)
.MODEL 2N3859A NPN(BF=393.6 BR=1.372 CJC=4.017p CJE=4.973p EG=1.11 FC=0.5 ICRATING=100m IKF=12.43m IKR=0 IS=5.911f ISC=0 ISE=5.911f ITF=0.35 MFG=NSC MJC=0.3174 MJE=0.4146 NC=2 NE=1.271 NF=1 NR=1 RB=10 RC=1.61 RE=0.15 TF=818.2p TR=4.761n VAF=62.37 VAR=21.5 VCEO=60 VJC=0.65 VJE=0.65 VTF=4 XCJC=0.75 XTB=1.5 XTF=7 XTI=3)
.MODEL 2N3866 NPN(BF=100 BR=1.5 CJC=2.7p CJE=3.5p EG=1.11 FC=0.5 IKF=0.28 IKR=0.28 IRB=0.04 IS=4f ISC=1.2e-14 ISE=3.6e-14 ITF=0.12 KF=1f MJC=0.33 MJE=0.33 NC=1.7 NE=1.5 RB=12.2 RBM=9 RC=4.9 RE=0.132 TF=7.1e-11 TR=8n VAF=240 VAR=24 VJC=0.75 VJE=0.75 VTF=9.9 XCJC=0.5 XTB=1.5 XTF=4 XTI=3)
.MODEL 2N3868 PNP(BF=127.3 BR=3.462 CJC=201.9p CJE=459p EG=1.11 FC=0.5 IKF=29.49 IKR=0.9991 IS=20.4f ISC=20.4f ISE=2.393p ITF=1 MJC=0.4284 MJE=0.2692 NC=1.659 NE=1.431 NK=1.325 RC=0.2438 TF=2.593n TR=98.05n VAF=100 VAR=100 VJC=0.9346 VJE=0.3905 VTF=10 XTB=1 XTF=0 XTI=3)
.MODEL 2N3903 NPN(BF=335.2 BR=0.8073 CJC=3.638p CJE=4.493p EG=1.11 FC=0.5 ICRATING=200M IKF=60.26m IKR=0 IS=6.734f ISC=0 ISE=6.734f ITF=0.4 MFG=NSC MJC=0.3085 MJE=0.2593 NC=2 NE=1.208 NF=1 NR=1 RB=10 RC=1 RE=0.1 TF=300.8p TR=243.9n VAF=74.03 VAR=28 VCEO=60 VJC=0.65 VJE=0.65 VTF=4 XCJC=0.75 XTB=1.5 XTF=2 XTI=3)
.MODEL 2N3904 NPN(BF=300 BR=4 CJC=4e-12 CJE=8e-12 ICRATING=200m IKF=0.4 IS=1e-14 ITF=1 MFG=Philips RB=20 RC=0.1 RE=0.1 TF=3.5e-10 TR=2.5e-7 VAF=100 VCEO=40 VTF=2 XTB=1.5 XTF=3)
.MODEL 2N3904T NPN(BF=215.38 BR=4.805 CJC=7.6517p CJE=9.485p ICRATING=600m IKF=0.88689 IKR=0.54262 IS=4.1799f ISC=2.5346p ISE=4.2698f ITF=1 MFG=Philips MJC=0.33333 MJE=0.33333 NC=1.4324 NE=1.9988 NK=1.389 RB=14.616 RC=0.53092 TF=481.51p TR=124.93n VAF=79.874 VAR=100 VCEO=40 VTF=10 XTF=10)
.MODEL 2N3905 PNP(BF=90.35 BR=5.502 CJC=9.728p CJE=8.063p EG=1.11 FC=0.5 ICRATING=200m IKF=80m IKR=0 IS=1.41f ISC=0 ISE=0 ITF=0.4 MFG=NSC MJC=0.5776 MJE=0.3677 NC=2 NE=1.5 NF=1 NR=1 RB=10 RC=2.5 RE=0.15 TF=179.3p TR=35.05n VAF=18.7 VAR=6.5 VCEO=40 VJC=0.65 VJE=0.65 VTF=4 XCJC=0.75 XTB=1.5 XTF=6 XTI=3)
.MODEL 2N3906 PNP(BF=200 BR=4 CJC=4.5e-12 CJE=1e-11 ICRATING=200m IKF=0.4 IS=1e-14 ITF=1 MFG=Philips RB=20 RC=0.1 RE=0.1 TF=3.5e-10 TR=2.5e-7 VAF=100 VCEO=40 VTF=2 XTB=1.5 XTF=3)
.MODEL 2N4121 PNP(BF=122.2 BR=5.215 CJC=9.728p CJE=8.063p EG=1.11 FC=0.5 ICRATING=100M IKF=80m IKR=0 IS=1.41f ISC=0 ISE=0 ITF=0.4 MFG=NSC MJC=0.5776 MJE=0.3677 NC=2 NE=1.5 NF=1 NR=1 RB=10 RC=2.5 RE=0.15 TF=179.3p TR=34.2n VAF=18.7 VAR=6.5 VCEO=40 VJC=0.65 VJE=0.65 VTF=4 XCJC=0.75 XTB=1.5 XTF=6 XTI=3)
.MODEL 2N4122 PNP(BF=219.7 BR=4.894 CJC=9.728p CJE=8.063p EG=1.11 FC=0.5 ICRATING=100M IKF=80m IKR=0 IS=1.41f ISC=0 ISE=0 ITF=0.4 MFG=NSC MJC=0.5776 MJE=0.3677 NC=2 NE=1.5 NF=1 NR=1 RB=10 RC=2.5 RE=0.15 TF=179.3p TR=33.13n VAF=18.7 VAR=6.5 VCEO=40 VJC=0.65 VJE=0.65 VTF=4 XCJC=0.75 XTB=1.5 XTF=6 XTI=3)
.MODEL 2N4123 NPN(BF=335.3 BR=0.7925 CJC=3.638p CJE=4.493p EG=1.11 FC=0.5 ICRATING=200M IKF=61.27m IKR=0 IS=6.734f ISC=0 ISE=6.734f ITF=0.4 MFG=NSC MJC=0.3085 MJE=0.2593 NC=2 NE=1.216 NF=1 NR=1 RB=10 RC=1 RE=0.1 TF=300.8p TR=243.1n VAF=74.03 VAR=28 VCEO=40 VJC=0.65 VJE=0.65 VTF=4 XCJC=0.75 XTB=1.5 XTF=2 XTI=3)
.MODEL 2N4124 NPN(BF=495 BR=0.7214 CJC=3.638p CJE=4.493p EG=1.11 FC=0.5 ICRATING=200m IKF=69.35m IKR=0 IS=6.734f ISC=0 ISE=6.734f ITF=0.4 MFG=Fairchild MJC=0.3085 MJE=0.2593 NC=2 NE=1.28 RB=10 RC=1 TF=301.3p TR=238.3n VAF=74.03 VCEO=25 VJC=0.75 VJE=0.75 VTF=4 XTB=1.5 XTF=2 XTI=3)
.MODEL 2N4125 PNP(BF=85.04 BR=5.576 CJC=9.728p CJE=8.063p EG=1.11 FC=0.5 ICRATING=200M IKF=80m IKR=0 IS=1.41f ISC=0 ISE=0 ITF=0.4 MFG=NSC MJC=0.5776 MJE=0.3677 NC=2 NE=1.5 NF=1 NR=1 RB=10 RC=2.5 RE=0.15 TF=179.3p TR=35.25n VAF=18.7 VAR=6.5 VCEO=30 VJC=0.65 VJE=0.65 VTF=4 XCJC=0.75 XTB=1.5 XTF=6 XTI=3)
.MODEL 2N4126 PNP(BF=203.7 BR=4.924 CJC=9.728p CJE=8.063p EG=1.11 FC=0.5 ICRATING=200m IKF=80m IKR=0 IS=1.41f ISC=0 ISE=0 ITF=0.4 MFG=Fairchild MJC=0.5776 MJE=0.3677 NC=2 NE=1.5 RB=10 RB=10 RC=2.5 TF=179.3p TR=33.23n VAF=18.7 VCEO=25 VJC=0.75 VJE=0.75 VTF=4 XTB=1.5 XTF=6 XTI=3)
.MODEL 2N4141 NPN(BF=255.9 BR=6.092 CJC=7.306p CJE=22.01p EG=1.11 FC=0.5 ICRATING=200m IKF=0.2847 IKR=0 IS=14.34f ISC=0 ISE=14.34f ITF=0.6 MFG=NSC MJC=0.3416 MJE=0.377 NC=2 NE=1.307 NF=1 NR=1 RB=10 RC=1 RE=0.1 TF=411.1p TR=46.91n VAF=74.03 VAR=28 VCEO=60 VJC=0.65 VJE=0.65 VTF=1.7 XCJC=0.75 XTB=1.5 XTF=3 XTI=3)
.MODEL 2N4143 PNP(BF=231.7 BR=3.563 CJC=14.76p CJE=19.82p EG=1.11 FC=0.5 ICRATING=200m IKF=1.079 IKR=0 IS=6.506e-16 ISC=0 ISE=54.81f ITF=0.65 MFG=NSC MJC=0.5383 MJE=0.3357 NC=2 NE=1.829 NF=1 NR=1 RB=10 RC=0.715 RE=0.15 TF=603.7p TR=111.3n VAF=115.7 VAR=35 VCEO=60 VJC=0.65 VJE=0.65 VTF=5 XCJC=0.75 XTB=1.5 XTF=1.7 XTI=3)
.MODEL 2N4249 PNP(BF=161.4 BR=2.767 CJC=6.2p CJE=7.5p EG=1.11 FC=0.5 ICRATING=100m IKF=0.1806 IKR=0 IS=6.734f ISC=0 ISE=6.734f ITF=0.17 MFG=NSC MJC=0.301 MJE=0.2861 NC=2 NE=1.672 NF=1 NR=1 RB=10 RC=1.67 RE=0.15 TF=467.4p TR=10.54n VAF=45.7 VAR=15 VCEO=60 VJC=0.65 VJE=0.65 VTF=5 XCJC=0.75 XTB=1.5 XTF=8 XTI=3)
.MODEL 2N4250A PNP(BF=388.2 BR=2.635 CJC=6.2p CJE=7.5p EG=1.11 FC=0.5 ICRATING=100m IKF=0.205 IKR=0 IS=6.734f ISC=0 ISE=6.734f ITF=0.17 MFG=NSC MJC=0.301 MJE=0.2861 NC=2 NE=1.806 NF=1 NR=1 RB=10 RC=1.67 RE=0.167 TF=467.9p TR=9.861n VAF=45.7 VAR=15 VCEO=60 VJC=0.65 VJE=0.65 VTF=5 XCJC=0.75 XTB=1.5 XTF=8 XTI=3)
.MODEL 2N4258 PNP(BF=61.42 BR=1.426 CJC=2.77p CJE=2.65p EG=1.11 FC=0.5 ICRATING=50m IKF=50m IKR=0 IS=5.456e-16 ISC=0 ISE=0 ITF=0.5 MFG=NSC MJC=0.1416 MJE=0.3083 NC=2 NE=1.5 NF=1 NR=1 RB=10 RC=3.75 RE=0.15 TF=118.5p TR=4.109n VAF=100 VAR=30 VCEO=12 VJC=0.65 VJE=0.65 VTF=3 XCJC=0.75 XTB=1.5 XTF=6 XTI=3)
.MODEL 2N4275 NPN(BF=73.62 BR=12.84m CJC=2.83p CJE=4.5p EG=1.11 FC=0.5 ICRATING=100m IKF=0.3498 IKR=0 IS=44.14f ISC=0 ISE=97.82f ITF=0.3 MFG=NSC MJC=0.862 MJE=0.2418 NC=2 NE=1.389 NF=1 NR=1 RB=10 RC=0.6 RE=0.06 TF=227.6p TR=0.000001079 VAF=100 VAR=30 VCEO=40 VJC=0.65 VJE=0.65 VTF=4 XCJC=0.75 XTB=1.5 XTF=4 XTI=3)
.MODEL 2N4355 PNP(BF=194.8 BR=1.184 CJC=48.28p CJE=106.7p EG=1.11 FC=0.5 ICRATING=500m IKF=1.123 IKR=0 IS=12.27p ISC=0 ISE=12.27p ITF=0.2 MFG=NSC MJC=0.5615 MJE=0.5168 NC=2 NE=1.649 NF=1 NR=1 RB=10 RC=0.6 RE=0.06 TF=867p TR=474.5n VAF=100 VAR=30 VCEO=60 VJC=0.65 VJE=0.65 VTF=2 XCJC=0.75 XTB=1.5 XTF=0.8 XTI=3)
.MODEL 2N4356 PNP(BF=110.2 BR=1.252 CJC=48.28p CJE=106.7p EG=1.11 FC=0.5 ICRATING=500m IKF=1.036 IKR=0 IS=12.27p ISC=0 ISE=12.27p ITF=0.2 MFG=NSC MJC=0.5615 MJE=0.5168 NC=2 NE=1.558 NF=1 NR=1 RB=10 RC=0.6 RE=0.06 TF=866.1p TR=489.1n VAF=100 VAR=30 VCEO=80 VJC=0.65 VJE=0.65 VTF=2 XCJC=0.75 XTB=1.5 XTF=0.8 XTI=3)
.MODEL 2N4400 NPN(BF=77.56 BR=1.06 CJC=11.01p CJE=24.07p EG=1.11 FC=0.5 ICRATING=600m IKF=0.2397 IKR=0 IS=26.03f ISC=0 ISE=26.7f ITF=0 MFG=NSC MJC=0.3763 MJE=0.3641 NC=2 NE=1.204 NF=1 NR=1 RB=10 RC=0.5 RE=0.15 TF=573.2p TR=244n VAF=90.7 VAR=29 VCEO=60 VJC=0.65 VJE=0.65 VTF=0 XCJC=0.75 XTB=1.5 XTF=0 XTI=3)
.MODEL 2N4401 NPN(BF=4.292K BR=1.01 CJC=11.01p CJE=24.07p EG=1.11 FC=0.5 ICRATING=600m IKF=0.2061 IKR=0 IS=26.03f ISC=0 ISE=26.03f ITF=0 MFG=Fairchild MJC=0.3763 MJE=0.3641 NC=2 NE=1.244 RB=10 RC=0.5 TF=466.5p TR=233.7n VAF=90.7 VCEO=40 VJC=0.75 VJE=0.75 VTF=0 XTB=1.5 XTF=0 XTI=3)
.MODEL 2N4402 PNP(BF=108 BR=3.83 CJC=14.76p CJE=19.82p EG=1.11 FC=0.5 ICRATING=600m IKF=1.115 IKR=0 IS=6.506e-16 ISC=0 ISE=146.9f ITF=0.65 MFG=NSC MJC=0.5383 MJE=0.3357 NC=2 NE=1.86 NF=1 NR=1 RB=10 RC=0.715 RE=0.15 TF=761.3p TR=115.7n VAF=115.7 VAR=35 VCEO=40 VJC=0.65 VJE=0.65 VTF=5 XCJC=0.75 XTB=1.5 XTF=1.7 XTI=3)
.MODEL 2N4403 PNP(BF=216.2 BR=3.578 CJC=14.76p CJE=19.82p EG=1.11 FC=0.5 ICRATING=600m IKF=1.079 IKR=0 IS=6.506e-16 ISC=0 ISE=58.72f ITF=0.65 MFG=Fairchild MJC=0.5383 MJE=0.3357 NC=2 NE=1.829 RB=10 RC=0.715 TF=603.7p TR=111.6n VAF=115.7 VCEO=40 VJC=0.75 VJE=0.75 VTF=5 XTB=1.5 XTF=1.7 XTI=3)
.MODEL 2N4410 NPN(BF=413.6 BR=1.361 CJC=4.017p CJE=4.973p EG=1.11 FC=0.5 ICRATING=250m IKF=12.6m IKR=0 IS=5.911f ISC=0 ISE=5.911f ITF=0.35 MFG=NSC MJC=0.3174 MJE=0.4146 NC=2 NE=1.278 NF=1 NR=1 RB=10 RC=1.61 RE=0.15 TF=818.4p TR=4.749n VAF=62.37 VAR=21.5 VCEO=120 VJC=0.65 VJE=0.65 VTF=4 XCJC=0.75 XTB=1.5 XTF=7 XTI=3)
.MODEL 2N4427M NPN(BF=12.656 BR=0.1001 CJC=13.487p CJE=2p IKF=0.50673 IKR=10.01m IS=10f ISC=10f ISE=119.65f ITF=1 MJC=0.33333 NE=1.506 NK=0.68565 TF=305.55p TR=10n VAF=100 VAR=100 VTF=10 XTF=10)
.MODEL 2N4427T NPN(BF=200 BR=2.025 CJC=3.334p CJE=4.118p EG=1.11 FC=0.5 ICRATING=500m IKF=76.38m IKR=5.567 IS=20.75f ISC=163.1p ISE=224.4f ITF=1.912 MFG=Philips MJC=0.2086 MJE=0.3794 NC=1.438 NE=1.439 NK=0.5276 RC=1.156 TF=236.7p TR=45.49n VAF=100 VCEO=40 VJC=0.5 VJE=0.5 VTF=10 XTB=1.8 XTF=43.51 XTI=3)
.MODEL 2N4917 PNP(BF=219.7 BR=4.894 CJC=9.728p CJE=8.063p EG=1.11 FC=0.5 ICRATING=100m IKF=80m IKR=0 IS=1.41f ISC=0 ISE=0 ITF=0.4 MFG=NSC MJC=0.5776 MJE=0.3677 NC=2 NE=1.5 NF=1 NR=1 RB=10 RC=2.5 RE=0.15 TF=179.3p TR=33.13n VAF=18.7 VAR=6.5 VCEO=30 VJC=0.65 VJE=0.65 VTF=4 XCJC=0.75 XTB=1.5 XTF=6 XTI=3)
.MODEL 2N507 PNP(BF=254.1 BR=2.683 CJC=6.2p CJE=7.5p EG=1.11 FC=0.5 ICRATING=100m IKF=0.1962 IKR=0 IS=6.734f ISC=0 ISE=6.734f ITF=0.17 MFG=NSC MJC=0.301 MJE=0.2861 NC=2 NE=1.741 NF=1 NR=1 RB=10 RC=1.67 RE=0.15 TF=467.8p TR=10.1n VAF=45.7 VAR=15 VCEO=40 VJC=0.65 VJE=0.65 VTF=5 XCJC=0.75 XTB=1.5 XTF=8 XTI=3)
.MODEL 2N5086 PNP(BF=284.436 BR=4.8 CJC=8.7p CJE=11.8p EG=1.11 FC=0.75 ICRATING=50m IKF=0.38 IKR=0.932 IRB=0.1m IS=28f ISC=0.125p ISE=24.903f ITF=0.314 MFG=SIEMENS MJC=0.6 MJE=0.435 NC=2.074 NE=2.234 NF=1 NR=1.005 PTF=1 RB=2.2 RBM=1.5 RC=2.251 RE=0.3 TF=0.6n TR=2.604n VAF=43 VAR=6.96 VCEO=50 VJC=0.9 VJE=1 VTF=2 XCJC=0.65 XTB=1.6 XTF=6.5 XTI=3.3)
.MODEL 2N5087 PNP(BF=254.1 BR=2.683 CJC=6.2p CJE=7.5p EG=1.11 FC=0.5 ICRATING=100m IKF=0.1962 IKR=0 IS=6.734f ISC=0 ISE=6.734f ITF=0.17 MFG=Fairchild MJC=0.301 MJE=0.2861 NC=2 NE=1.741 RB=10 RC=1.67 TF=467.8p TR=10.1n VAF=45.7 VCEO=50 VJC=0.75 VJE=0.75 VTF=5 XTB=1.5 XTF=8 XTI=3)
.MODEL 2N5088 NPN(BF=1122 BR=1.271 CJC=4.017p CJE=4.973p EG=1.11 FC=0.5 ICRATING=50m IKF=14.92m IKR=0 IS=5.911f ISC=0 ISE=5.911f ITF=0.35 MFG=NSC MJC=0.3174 MJE=0.4146 NC=2 NE=1.394 NF=1 NR=1 RB=10 RC=1.61 RE=0.15 TF=821.7p TR=4.673n VAF=62.37 VAR=21.5 VCEO=35 VJC=0.65 VJE=0.65 VTF=4 XCJC=0.75 XTB=1.5 XTF=7 XTI=3)
.MODEL 2N5088_F NPN(BF=405.19 BR=16.246 CJC=5.858717p CJE=1.984254e-11 EG=1.1884 FC=0.5 ICRATING=50m IKF=0.40519 IKR=0.020893 IRB=0.000002179 IS=3.80189e-14 ISC=9.84993p ISE=2.51189e-14 MFG=Fairchild MJC=0.3080685 MJE=0.05 NC=1.5 NE=2 NF=1 NR=1 RB=898 RBM=7.525 RC=1.5 RE=2.5 TF=3.185n VAF=219.367 VAR=10.6729 VCEO=35 VJC=0.5 VJE=1.2 XTB=1.8883 XTI=3)
.MODEL 2N5089 NPN(BF=1.434K BR=1.262 CJC=4.017p CJE=4.973p EG=1.11 FC=0.5 ICRATING=100m IKF=15.4m IKR=0 IS=5.911f ISC=0 ISE=5.911f ITF=0.35 MFG=Fairchild MJC=0.3174 MJE=0.4146 NC=2 NE=1.421 RB=10 RC=1.61 TF=822.3p TR=4.671n VAF=62.37 VCEO=25 VJC=0.75 VJE=0.75 VTF=4 XTB=1.5 XTF=7 XTI=3)
.MODEL 2N5109 NPN(BF=44 BR=1.14 CJC=3p CJE=2p EG=1.11 FC=0.5 IKF=0.28 IKR=0.28 IRB=0.04 IS=4e-15 ISC=1.2e-14 ISE=3.6e-14 ITF=0.082 KF=1f MFG=Motorola MJC=0.33 MJE=0.33 NC=1.7 NE=1.5 RB=1.57 RBM=1.1 RC=0.69 RE=2.75 TF=0.111n TR=8n VAF=160 VAR=16 VJC=0.75 VJE=0.75 VTF=6.6 XCJC=0.5 XTB=1.5 XTF=4 XTI=3)
.MODEL 2N5134 NPN(BF=61.88 BR=13.33m CJC=2.83p CJE=4.5p EG=1.11 FC=0.5 ICRATING=100m IKF=0.3498 IKR=0 IS=44.14f ISC=0 ISE=116.4f ITF=0.3 MFG=NSC MJC=0.862 MJE=0.2418 NC=2 NE=1.389 NF=1 NR=1 RB=10 RC=0.6 RE=0.06 TF=227.6p TR=0.000001097 VAF=100 VAR=30 VCEO=20 VJC=0.65 VJE=0.65 VTF=4 XCJC=0.75 XTB=1.5 XTF=4 XTI=3)
.MODEL 2N5138 PNP(BF=274.6 BR=4.82 CJC=9.728p CJE=8.063p EG=1.11 FC=0.5 ICRATING=50m IKF=80m IKR=0 IS=1.41f ISC=0 ISE=0 ITF=0.4 MFG=NSC MJC=0.5776 MJE=0.3677 NC=2 NE=1.5 NF=1 NR=1 RB=10 RC=2.5 RE=0.15 TF=179.3p TR=32.86n VAF=18.7 VAR=6.5 VCEO=50 VJC=0.65 VJE=0.65 VTF=4 XCJC=0.75 XTB=1.5 XTF=6 XTI=3)
.MODEL 2N5172 NPN(BF=308.3 BR=4.379 CJC=5.777p CJE=8.307p EG=1.11 FC=0.5 ICRATING=100M IKF=0.1072 IKR=0 IS=12.03f ISC=0 ISE=4.098p ITF=0.17 MFG=NSC MJC=0.3199 MJE=0.384 NC=2 NE=1.971 NF=1 NR=1 RB=10 RC=1 RE=0.1 TF=385.4p TR=718.9p VAF=37.37 VAR=12.5 VCEO=25 VJC=0.65 VJE=0.65 VTF=3 XCJC=0.75 XTB=1.5 XTF=8 XTI=3)
.MODEL 2N5179 NPN(BF=282.1 BR=1.176 CJC=1.042p CJE=1.52p EG=1.11 FC=0.5 ICRATING=50m IKF=22.03m IKR=0 IS=6.928e-17 ISC=0 ISE=6.928e-17 ITF=0.27 MFG=NSC MJC=0.2468 MJE=0.3223 NC=2 NE=1.177 NF=1 NR=1 RB=10 RC=4 RE=0.15 TF=135.6p TR=1.588n VAF=100 VAR=30 VCEO=20 VJC=0.65 VJE=0.65 VTF=10 XCJC=0.75 XTB=1.5 XTF=30 XTI=3)
.MODEL 2N5210 NPN(BF=809.9 BR=1.287 CJC=4.017p CJE=4.973p EG=1.11 FC=0.5 ICRATING=100m IKF=14.26m IKR=0 IS=5.911f ISC=0 ISE=5.911f ITF=0.35 MFG=Fairchild MJC=0.3174 MJE=0.4146 NC=2 NE=1.358 RB=10 RC=1.61 TF=820.9p TR=4.68n VAF=62.37 VCEO=50 VJC=0.75 VJE=0.75 VTF=4 XTB=1.5 XTF=7 XTI=3)
.MODEL 2N5339 NPN(BF=152.57 BR=13.852 CJC=3.569026e-10 CJE=1.302694n EG=1.11 FC=0.7632526 IKF=9.7 IKR=0.6209 IRB=0.0006583436 IS=5.714601e-13 ISC=6.3e-13 ISE=7.21052e-14 ITF=2.0724567 MJC=0.4118022 MJE=0.330941 NC=1.1115541 NE=1.19901 NF=0.9805931 NR=0.9784 PTF=9.69 RB=13.93 RBM=1.2294809 RC=0.1875 RE=1m TF=1.05n TR=2e-7 VAF=61.1748129 VAR=48.653531 VJC=0.4519862 VJE=0.6346739 VTF=0.2766874 XTB=1.886 XTF=26.935 XTI=6.7495)
.MODEL 2N5366 PNP(BF=166.3 BR=3.649 CJC=14.76p CJE=19.82p EG=1.11 FC=0.5 ICRATING=300m IKF=1.105 IKR=0 IS=6.506e-16 ISC=0 ISE=90.78f ITF=0.65 MFG=NSC MJC=0.5383 MJE=0.3357 NC=2 NE=1.853 NF=1 NR=1 RB=10 RC=0.715 RE=0.15 TF=761.3p TR=112.8n VAF=115.7 VAR=35 VCEO=40 VJC=0.65 VJE=0.65 VTF=5 XCJC=0.75 XTB=1.5 XTF=1.7 XTI=3)
.MODEL 2N5400 PNP(BF=93.44 BR=3.874 CJC=17.63p CJE=73.39p EG=1.11 FC=0.5 ICRATING=600m IKF=0.1798 IKR=0 IS=21.48f ISC=0 ISE=21.48f ITF=0 MFG=NSC MJC=0.5312 MJE=0.3777 NC=2 NE=1.344 NF=1 NR=1 RB=10 RC=1.6 RE=0.15 TF=641.5p TR=1.512n VAF=100 VAR=30 VCEO=130 VJC=0.65 VJE=0.65 VTF=0 XCJC=0.75 XTB=1.5 XTF=0 XTI=3)
.MODEL 2N5401 PNP(BF=132.1 BR=3.661 CJC=17.63p CJE=73.39p EG=1.11 FC=0.5 ICRATING=600m IKF=0.1848 IKR=0 IS=21.48f ISC=0 ISE=21.48f ITF=0 MFG=Fairchild MJC=0.5312 MJE=0.3777 NC=2 NE=1.375 RB=10 RC=1.6 TF=641.9p TR=1.476n VAF=100 VCEO=150 VJC=0.75 VJE=0.75 VTF=0 XTB=1.5 XTF=0 XTI=3)
.MODEL 2N5550 NPN(BF=213.4 BR=3.24 CJC=4.883p CJE=18.79p EG=1.11 FC=0.5 ICRATING=600m IKF=0.3495 IKR=0 IS=2.511f ISC=0 ISE=2.511f ITF=50m MFG=Fairchild MJC=0.3047 MJE=0.3416 NC=2 NE=1.241 RB=10 RC=1 TF=560.1p TR=1.212n VAF=100 VCEO=150 VJC=0.75 VJE=0.75 VTF=5 XTB=1.5 XTF=8 XTI=3)
.MODEL 2N5551 NPN(BF=242.6 BR=3.197 CJC=4.883p CJE=18.79p EG=1.11 FC=0.5 ICRATING=600m IKF=0.3458 IKR=0 IS=2.511f ISC=0 ISE=2.511f ITF=50m MFG=NSC MJC=0.3047 MJE=0.3416 NC=2 NE=1.249 NF=1 NR=1 RB=10 RC=1 RE=0.1 TF=560p TR=1.202n VAF=100 VAR=30 VCEO=180 VJC=0.65 VJE=0.65 VTF=5 XCJC=0.75 XTB=1.5 XTF=8 XTI=3)
.MODEL 2N5657 NPN(BF=46.1881 BR=4.46937 CJC=4.74919e-11 CJE=2.13868e-10 EG=1.206 FC=0.8 IKF=6.79554 IKR=3.17468 IRB=0.1 IS=2.60089e-13 ISC=1.74986e-13 ISE=7.20462p ITF=0.226713 MJC=0.361447 MJE=0.391421 NC=3.90625 NE=3.28966 NF=0.9868 NR=0.866274 PTF=0 RB=10.927 RBM=0.1 RC=2.43986 RE=0.0141049 TF=1.01847e-8 TR=9.5407u VAF=61.921 VAR=7.19873 VJC=0.95 VJE=0.99 VTF=3.60195 XCJC=0.789467 XTB=0.136699 XTF=1.77369 XTI=1.1199)
.MODEL 2N5769 NPN(BF=78.32 BR=12.69m CJC=2.83p CJE=4.5p EG=1.11 FC=0.5 ICRATING=200m IKF=0.3498 IKR=0 IS=44.14f ISC=0 ISE=91.95f ITF=0.3 MFG=Fairchild MJC=86.19m MJE=0.2418 NC=2 NE=1.389 RB=10 RC=0.6 TF=227.6p TR=1.073u VAF=100 VCEO=15 VJC=0.75 VJE=0.75 VTF=4 XTB=1.5 XTF=4 XTI=3)
.MODEL 2N5771 PNP(BF=76.77 BR=1.365 CJC=2.77p CJE=2.65p EG=1.11 FC=0.5 ICRATING=200m IKF=50m IKR=0 IS=5.456e-16 ISC=0 ISE=0 ITF=0.5 MFG=Fairchild MJC=0.1416 MJE=0.3083 NC=2 NE=1.5 RB=10 RC=3.75 TF=118.5p TR=4.033n VAF=100 VCEO=15 VJC=0.75 VJE=0.75 VTF=3 XTB=1.5 XTF=6 XTI=3)
.MODEL 2N5772 NPN(BF=75.97 BR=12.76m CJC=2.83p CJE=4.5p EG=1.11 FC=0.5 ICRATING=200m IKF=0.3498 IKR=0 IS=44.14f ISC=0 ISE=94.79f ITF=0.3 MFG=NSC MJC=0.862 MJE=0.2418 NC=2 NE=1.389 NF=1 NR=1 RB=10 RC=0.6 RE=0.06 TF=227.6p TR=0.000001076 VAF=100 VAR=30 VCEO=40 VJC=0.65 VJE=0.65 VTF=4 XCJC=0.75 XTB=1.5 XTF=4 XTI=3)
.MODEL 2N5794 NPN(BF=259.74 BR=2.2512 CJC=17.393p CJE=26.137p IKF=1.7249 IKR=20 IS=1.7882e-17 ISC=3.9625n ISE=3.5488f ITF=1.1273m MJC=0.46853 MJE=0.45696 NC=2.997 NE=1.5028 NK=1.1338 RC=0.58862 TF=77.901p TR=1n VAF=100 VAR=100 VTF=10 XTB=1.75 XTF=9.99)
.MODEL 2N5817 PNP(BF=127 BR=3.752 CJC=14.76p CJE=19.82p EG=1.11 FC=0.5 IKF=1.079 IKR=0 IS=6.506e-16 ISC=0 ISE=99.99f ITF=0.65 MJC=0.5383 MJE=0.3357 NC=2 NE=1.829 RB=10 RC=0.715 TF=761.3p TR=114.4n VAF=115.7 VJC=0.75 VJE=0.75 VTF=5 XTB=1.5 XTF=1.7 XTI=3)
.MODEL 2N5961 NPN(BF=784.646 BR=5.96205 CJC=4.08683p CJE=4.90357p EG=1.11 FC=0.5 IKF=0.029931 IKR=0.0214923 IS=2.61162e-14 ISC=3.89612f ISE=7.61259e-16 MJC=0.253526 MJE=0.328132 NC=1.04471 NE=1.21454 NF=1.00346 NR=1.03052 RB=57.8892 RC=1.97533 RE=0.18172 TF=1.591549n VAF=95.0254 VAR=9.07938 VJC=0.376047 VJE=0.671322 XTI=3)
.MODEL 2N5962 NPN(BF=1336.1 BR=4.49 CJC=4.92525p CJE=6.20343p EG=1.17 FC=0.5 ICRATING=100m IKF=0.0436516 IKR=0.0144544 IRB=0.000501187 IS=4.67735e-14 ISC=3.63078e-16 ISE=9.12011e-14 MFG=Fairchild MJC=0.300786 MJE=0.222819 NC=1.5 NE=2 NF=1 NR=1.011 RB=143 RBM=36.064 RC=1.8 RE=1.06 VAF=46 VAR=9.33 VCEO=45 VJC=0.5 VJE=0.574074 XTB=1.5 XTI=3)
.MODEL 2N6032 NPN(BF=112.2 BR=10 CJC=1.914n CJE=10n EG=1.11 FC=0.5 IKF=36.77 IKR=50 IS=2.767p ISC=10f ISE=2.767p ITF=1 MJC=0.3625 MJE=0.3333 NC=5 NE=1.323 NK=0.7385 RC=11m TF=40n TR=361.8n VAF=100 VAR=100 VJC=0.3905 VJE=0.75 VTF=10 XTB=1.5 XTF=0 XTI=3)
.MODEL 2N6428 NPN(BF=516.544 BR=7.745 CJC=4.1p CJE=13.05p EG=1.11 FC=0.75 ICRATING=200m IKF=0.708 IKR=1 IRB=0.1m IS=45f ISC=1.084p ISE=55.668f ITF=0.72 MFG=SIEMENS MJC=0.42 MJE=0.375 NC=4.063 NE=2.567 NF=1.01 NR=1.015 PTF=1 RB=9 RBM=4.5 RC=1.445 RE=0.35 TF=0.62n TR=2.5n VAF=74 VAR=14 VCEO=60 VJC=0.75 VJE=0.69 VTF=1 XCJC=0.65 XTB=1.4 XTF=68 XTI=3.2)