* Copyright (c) 2000-2021 Analog Devices, Inc. All rights reserved.
*

.MODEL 2N7000 VDMOS(CGDMAX=80p CGDMIN=12p CGS=50p CJO=50p IS=0.04p KP=0.17 MFG=Fairchild MTRIODE=1.25 QG=1.5n RB=0.14 RD=0 RG=3 RON=2 RS=0.75 VDS=60 VTO=1.6)
.MODEL 2N7002 VDMOS(CGDMAX=80p CGDMIN=12p CGS=50p CJO=50p IS=0.04p KP=0.17 MFG=Fairchild MTRIODE=1.25 QG=1.5n RB=0.14 RD=0 RG=3 RON=2 RS=0.75 VDS=60 VTO=1.6)
.MODEL 2SJ162 PMOS(CBD=2.96862N CGDO=1.13517N CGSO=1.13517N GAMMA=0 IS=10F KP=20U L=2U LAMBDA=20.7067M PHI=600M RD=837.199M RDS=1MEG RG=50 TPG=1 UO=600 VTO=-842.193M W=21.3317M)
.MODEL 2SJ162C VDMOS(A=0.25 CGDMAX=215p CGDMIN=10p CGS=900p CJO=1200p IS=0.000004 KP=0.6 LAMBDA=0.1 M=0.7 N=2.4 PCHAN RD=0.1 RDS=10000000 RS=0.55 VJ=2.5 VTO=-0.08)
.MODEL 2SJ201C VDMOS(A=0.34 CGDMAX=3100p CGDMIN=55p CGS=1500p CJO=2800p IS=0.000004 KP=4.5 LAMBDA=0.002 M=0.68 N=2.4 PCHAN RD=0.1 RDS=10000000 RS=0.04 VJ=2.5 VTO=-1.5)
.MODEL 2SJ49C VDMOS(A=0.25 CGDMAX=215p CGDMIN=10p CGS=900p CJO=1200p IS=0.000004 KP=0.6 LAMBDA=0.1 M=0.7 N=2.4 PCHAN RD=0.1 RDS=10000000 RS=0.55 VJ=2.5 VTO=-0.08)
.MODEL 2SK1056C VDMOS(A=0.25 CGDMAX=100p CGDMIN=5p CGS=600p CJO=1080p IS=0.000004 KP=0.85 LAMBDA=0.02 M=0.7 N=2.4 NCHAN RD=0.1 RDS=10000000 RS=0.62 VJ=2.5 VTO=0.02)
.MODEL 2SK1058 NMOS(CBD=2.56138N CGDO=1.13517N CGSO=1.13517N GAMMA=0 IS=10F KP=20U L=2U LAMBDA=184.988F PHI=600M RD=60.8251M RDS=1MEG RG=50 TPG=1 UO=600 VTO=403.969M W=29.7482M)
.MODEL 2SK134C VDMOS(A=0.25 CGDMAX=100p CGDMIN=5p CGS=600p CJO=1080p IS=0.000004 KP=0.85 LAMBDA=0.02 M=0.7 N=2.4 NCHAN RD=0.1 RDS=10000000 RS=0.62 VJ=2.5 VTO=0.02)
.MODEL 2SK1489 NMOS(CBD=3.74n CGDO=31.4p CGSO=1.9n GAMMA=0 IS=5.1802m KAPPA=0 KP=1.0362u L=2u LEVEL=3 MJ=1.1448 N=5 PB=2.0044 RB=1n RD=0.7366 RDS=5333300 RG=10m RS=10m TOX=2u VTO=2.25 W=4.8)
.MODEL 2SK1530C VDMOS(A=0.33 CGDMAX=1500p CGDMIN=15p CGS=880p CJO=1260p IS=0.000004 KP=9 LAMBDA=0.002 M=0.68 N=2.4 NCHAN RD=0.1 RDS=10000000 RS=0.025 VJ=2.5 VTO=1.55)
.MODEL AO6407 VDMOS(CGDMAX=0.5n CGDMIN=0.07n CGS=0.9n CJO=0.26n IS=26p KP=32 MFG=Alpha_&_Omega PCHAN QG=13n RB=17m RD=14m RG=3 RON=34m RS=10m VDS=-20 VTO=-0.8)
.MODEL AO6408 VDMOS(CGDMAX=0.7n CGDMIN=0.25n CGS=1n CJO=0.36n IS=36p KP=90 MFG=Alpha_&_Omega QG=18n RB=6m RD=4.8m RG=3 RON=12m RS=3.6m VDS=20 VTO=1)
.MODEL AON6242 VDMOS(CGDMAX=1n CGDMIN=50p CGS=5n CJO=4n IS=2p KP=280 LAMBDA=0.1 MFG=Alpha_&_Omega MTRIODE=2 QG=23n RB=1m RD=2.6m RG=2 RON=4m VDS=60 VTO=2.7)
.MODEL AP9465GEM VDMOS(CGDMAX=800p CGDMIN=50p CGS=600p CJO=1.2n IS=3p KP=30 LAMBDA=0.04 MFG=Advanced_Power_Electronics QG=8.5n RB=10m RD=0 RG=2 RON=25m RS=16m VDS=40 VTO=1.8)
.MODEL BS107KL VDMOS(A=3.83 BV=240 CGDMAX=128p CGDMIN=5p CGS=203p CJO=50pF IBV=1u IS=7e-14 KP=3.5 LAMBDA=10m M=0.39 MFG=Vishay QG=8n RB=0.35 RD=2.1 RDS=200Meg RG=3 RON=4 RS=0.1 TT=720n VDS=240 VJ=0.16 VTO=1.8)
.MODEL BSB012N03LX3 VDMOS(A=0.6 CGDMAX=2.32n CGDMIN=155p CGS=9.61n CJO=8.84n IS=84p KP=1084 LAMBDA=0.09 M=0.3 MFG=Infineon N=1.1 QG=62n RB=383u RD=612u RG=0.5 RON=1.2m RS=183u TT=3n VDS=30 VJ=0.9 VTO=2.77)
.MODEL BSB012N03MX3 VDMOS(A=0.6 CGDMAX=3.09n CGDMIN=221p CGS=12.71n CJO=8.84n IS=77.4p KP=1182.4 LAMBDA=0.07 M=0.3 MFG=Infineon N=1.11 QG=82n RB=373u RD=572u RG=0.5 RON=1.2m RS=183u TT=3n VDS=30 VJ=0.9 VTO=2.52)
.MODEL BSB012NE2LX VDMOS(A=0.6 CGDMAX=1.58n CGDMIN=88p CGS=4.73n CJO=5.17n IS=53.6p KP=1031.4 LAMBDA=0.09 M=0.75 MFG=Infineon N=1.12 QG=33n RB=415u RD=632u RG=0.55 RON=1.2m RS=85u TT=3n VDS=25 VJ=2.5 VTO=2.33)
.MODEL BSB013NE2LXI VDMOS(A=0.6 CGDMAX=1.58n CGDMIN=88p CGS=4.23n CJO=5.17n IS=53618p KP=893.8 LAMBDA=0.09 M=0.75 MFG=Infineon N=1.12 QG=30n RB=1.37m RD=652u RG=0.6 RON=1.3m RS=85u TT=1p VDS=25 VJ=2.5 VTO=2.33)
.MODEL BSB014N04LX3 VDMOS(A=0.6 CGDMAX=2.32n CGDMIN=155p CGS=11.38n CJO=7.46n IS=84p KP=1084 LAMBDA=0.09 M=0.3 MFG=Infineon N=1.1 QG=71n RB=343u RD=692u RG=1 RON=1.2m RS=183u TT=3n VDS=40 VJ=0.9 VTO=2.89)
.MODEL BSB015N04NX3 VDMOS(A=0.6 CGDMAX=1.55n CGDMIN=111p CGS=8.4n CJO=7.46n IS=84p KP=580.5 LAMBDA=0.03 M=0.3 MFG=Infineon N=1.1 QG=114n RB=343u RD=612u RG=1 RON=1.5m RS=183u TT=3n VDS=40 VJ=0.9 VTO=4.95)
.MODEL BSB017N03LX3 VDMOS(A=0.6 CGDMAX=1.28n CGDMIN=85p CGS=5.31n CJO=5.14n IS=46.4p KP=599.1 LAMBDA=0.09 M=0.3 MFG=Infineon N=1.1 QG=34n RB=563u RD=1.06m RG=0.5 RON=1.7m RS=203u TT=3n VDS=30 VJ=0.9 VTO=2.77)
.MODEL BSB017N03MX3 VDMOS(A=0.6 CGDMAX=1.71n CGDMIN=122p CGS=7.02n CJO=5.14n IS=42.7p KP=653.4 LAMBDA=0.07 M=0.3 MFG=Infineon N=1.11 QG=45n RB=543u RD=1m RG=0.5 RON=1.7m RS=203u TT=3n VDS=30 VJ=0.9 VTO=2.52)
.MODEL BSC010NE2LS VDMOS(A=0.6 CGDMAX=1.49n CGDMIN=84p CGS=4.48n CJO=4.91n IS=50.8p KP=976.6 LAMBDA=0.09 M=0.75 MFG=Infineon N=1.12 QG=31n RB=586u RD=400u RG=0.6 RON=1m RS=236u TT=3n VDS=25 VJ=2.5 VTO=2.33)
.MODEL BSC010NE2LSI VDMOS(A=0.6 CGDMAX=1.5n CGDMIN=84p CGS=4.03n CJO=4.95n IS=51161.5p KP=852.9 LAMBDA=0.09 M=0.75 MFG=Infineon N=1.12 QG=29n RB=1.59m RD=420u RG=0.6 RON=1.05m RS=236u TT=1p VDS=25 VJ=2.5 VTO=2.33)
.MODEL BSC011N03LS VDMOS(A=0.6 CGDMAX=2.09n CGDMIN=119p CGS=4.48n CJO=4.91n IS=50.8p KP=958.7 LAMBDA=0.07 M=0.75 MFG=Infineon N=1.12 QG=34n RB=586u RD=440u RG=0.6 RON=1.1m RS=236u TT=3n VDS=30 VJ=2.5 VTO=2.3)
.MODEL BSC014N03LS VDMOS(A=0.6 CGDMAX=1.8n CGDMIN=120p CGS=7.45n CJO=6.99n IS=65.1p KP=840 LAMBDA=0.09 M=0.3 MFG=Infineon N=1.1 QG=48n RB=491u RD=770u RG=1.5 RON=1.4m RS=231u TT=3n VDS=30 VJ=0.9 VTO=2.77)
.MODEL BSC014N03MS VDMOS(A=0.6 CGDMAX=2.4n CGDMIN=171p CGS=9.85n CJO=6.99n IS=59.9p KP=916.2 LAMBDA=0.07 M=0.3 MFG=Infineon N=1.11 QG=63n RB=481u RD=730u RG=1.5 RON=1.4m RS=231u TT=3n VDS=30 VJ=0.9 VTO=2.52)
.MODEL BSC016N03LS VDMOS(A=0.6 CGDMAX=1.8n CGDMIN=120p CGS=7.45n CJO=6.99n IS=65.1p KP=840 LAMBDA=0.09 M=0.3 MFG=Infineon N=1.1 QG=48n RB=641u RD=770u RG=1.5 RON=1.6m RS=381u TT=3n VDS=30 VJ=0.9 VTO=2.77)
.MODEL BSC016N03MS VDMOS(A=0.6 CGDMAX=2.4n CGDMIN=171p CGS=9.85n CJO=6.99n IS=59.9p KP=916.2 LAMBDA=0.07 M=0.3 MFG=Infineon N=1.11 QG=63n RB=631u RD=730u RG=1.3 RON=2m RS=381u TT=3n VDS=30 VJ=0.9 VTO=2.52)
.MODEL BSC016N04LS VDMOS(A=0.6 CGDMAX=1.8n CGDMIN=120p CGS=8.82n CJO=5.87n IS=65.1p KP=840 LAMBDA=0.09 M=0.3 MFG=Infineon N=1.1 QG=55n RB=441u RD=880u RG=1.5 RON=1.6m RS=231u TT=3n VDS=40 VJ=0.9 VTO=2.89)
.MODEL BSC017N04NS VDMOS(A=0.6 CGDMAX=1.2n CGDMIN=86p CGS=6.51n CJO=5.87n IS=65.1p KP=449.8 LAMBDA=0.03 M=0.3 MFG=Infineon N=1.1 QG=89n RB=441u RD=770u RG=1.5 RON=1.7m RS=231u TT=3n VDS=40 VJ=0.9 VTO=4.95)
.MODEL BSC018N04LS VDMOS(A=0.6 CGDMAX=1.8n CGDMIN=120p CGS=8.82n CJO=5.87n IS=65.1p KP=840 LAMBDA=0.09 M=0.3 MFG=Infineon N=1.1 QG=55n RB=591u RD=880u RG=1.3 RON=1.8m RS=381u TT=3n VDS=40 VJ=0.9 VTO=2.89)
.MODEL BSC018NE2LS VDMOS(A=0.6 CGDMAX=0.9n CGDMIN=51p CGS=2.71n CJO=3.1n IS=30.7p KP=590.6 LAMBDA=0.09 M=0.75 MFG=Infineon N=1.12 QG=19n RB=945u RD=640u RG=0.8 RON=1.8m RS=365u TT=3n VDS=25 VJ=2.5 VTO=2.33)
.MODEL BSC019N04NS VDMOS(A=0.6 CGDMAX=1.2n CGDMIN=86p CGS=6.51n CJO=5.87n IS=65.1p KP=449.8 LAMBDA=0.03 M=0.3 MFG=Infineon N=1.1 QG=89n RB=591u RD=770u RG=1.3 RON=1.9m RS=381u TT=3n VDS=40 VJ=0.9 VTO=4.95)
.MODEL BSC019NE2LSI VDMOS(A=0.6 CGDMAX=0.9n CGDMIN=51p CGS=2.42n CJO=3.1n IS=30702p KP=511.8 LAMBDA=0.09 M=0.75 MFG=Infineon N=1.12 QG=17n RB=2.61m RD=680u RG=0.8 RON=1.9m RS=365u TT=1p VDS=25 VJ=2.5 VTO=2.33)
.MODEL BSC020N03LS VDMOS(A=0.6 CGDMAX=1.28n CGDMIN=86p CGS=5.32n CJO=5.15n IS=46.5p KP=600.3 LAMBDA=0.09 M=0.3 MFG=Infineon N=1.1 QG=34n RB=696u RD=1.06m RG=1.9 RON=2m RS=336u TT=3n VDS=30 VJ=0.9 VTO=2.77)
.MODEL BSC020N03MS VDMOS(A=0.6 CGDMAX=1.71n CGDMIN=122p CGS=7.04n CJO=5.15n IS=42.8p KP=654.7 LAMBDA=0.07 M=0.3 MFG=Infineon N=1.11 QG=45n RB=676u RD=1m RG=1.9 RON=2.5m RS=336u TT=3n VDS=30 VJ=0.9 VTO=2.52)
.MODEL BSC024NE2LS VDMOS(A=0.6 CGDMAX=0.54n CGDMIN=30p CGS=1.61n CJO=1.94n IS=18.3p KP=351.5 LAMBDA=0.09 M=0.75 MFG=Infineon N=1.12 QG=11n RB=1.31m RD=1.07m RG=0.9 RON=2.4m RS=331u TT=3n VDS=25 VJ=2.5 VTO=2.33)
.MODEL BSC025N03LS VDMOS(A=0.6 CGDMAX=1.02n CGDMIN=68p CGS=4.23n CJO=4.19n IS=36.9p KP=476.8 LAMBDA=0.09 M=0.3 MFG=Infineon N=1.1 QG=27n RB=721u RD=1.32m RG=1.6 RON=2.5m RS=271u TT=3n VDS=30 VJ=0.9 VTO=2.77)
.MODEL BSC025N03MS VDMOS(A=0.6 CGDMAX=1.36n CGDMIN=97p CGS=5.59n CJO=4.19n IS=34p KP=520 LAMBDA=0.07 M=0.3 MFG=Infineon N=1.11 QG=36n RB=701u RD=1.24m RG=1.6 RON=3m RS=271u TT=3n VDS=30 VJ=0.9 VTO=2.52)
.MODEL BSC027N04LS VDMOS(A=0.6 CGDMAX=1.02n CGDMIN=68p CGS=5.01n CJO=3.47n IS=36.9p KP=476.8 LAMBDA=0.09 M=0.3 MFG=Infineon N=1.1 QG=31n RB=641u RD=1.52m RG=1.6 RON=2.7m RS=271u TT=3n VDS=40 VJ=0.9 VTO=2.89)
.MODEL BSC028N06LS3 VDMOS(A=2.5 CGDMAX=3.26n CGDMIN=28p CGS=9.91n CJO=5.41n IS=15.8p KP=348.8 LAMBDA=0.01 M=0.3 MFG=Infineon N=1.06 QG=59n RB=728u RD=1.45m RG=1.3 RON=2.8m RS=408u TT=30n VDS=60 VJ=0.9 VTO=2.5)
.MODEL BSC030N03LS VDMOS(A=0.6 CGDMAX=0.76n CGDMIN=51p CGS=3.16n CJO=3.23n IS=27.6p KP=356 LAMBDA=0.09 M=0.3 MFG=Infineon N=1.1 QG=20n RB=854u RD=1.74m RG=1.5 RON=3m RS=254u TT=3n VDS=30 VJ=0.9 VTO=2.77)
.MODEL BSC030N03MS VDMOS(A=0.6 CGDMAX=1.02n CGDMIN=73p CGS=4.17n CJO=3.23n IS=25.4p KP=388.3 LAMBDA=0.07 M=0.3 MFG=Infineon N=1.11 QG=27n RB=834u RD=1.65m RG=1.5 RON=3.8m RS=254u TT=3n VDS=30 VJ=0.9 VTO=2.52)
.MODEL BSC030N04NS VDMOS(A=0.6 CGDMAX=0.68n CGDMIN=49p CGS=3.69n CJO=3.47n IS=36.9p KP=255.3 LAMBDA=0.03 M=0.3 MFG=Infineon N=1.1 QG=50n RB=641u RD=1.32m RG=1.6 RON=3m RS=271u TT=3n VDS=40 VJ=0.9 VTO=4.95)
.MODEL BSC031N06NS3 VDMOS(A=2.5 CGDMAX=2.05n CGDMIN=19p CGS=7.91n CJO=5.41n IS=15.8p KP=260.4 LAMBDA=0.01 M=0.3 MFG=Infineon N=1.06 QG=98n RB=948u RD=1.45m RG=1.3 RON=3.1m RS=408u TT=30n VDS=60 VJ=0.9 VTO=4.35)
.MODEL BSC032NE2LS VDMOS(A=0.6 CGDMAX=0.37n CGDMIN=21p CGS=1.11n CJO=1.4n IS=12.6p KP=242.5 LAMBDA=0.09 M=0.75 MFG=Infineon N=1.12 QG=8n RB=1.72m RD=1.54m RG=0.9 RON=3.2m RS=300u TT=3n VDS=25 VJ=2.5 VTO=2.33)
.MODEL BSC034N03LS VDMOS(A=0.6 CGDMAX=0.65n CGDMIN=43p CGS=2.7n CJO=2.81n IS=23.6p KP=304.1 LAMBDA=0.09 M=0.3 MFG=Infineon N=1.1 QG=17n RB=1.31m RD=2.03m RG=1.5 RON=3.4m RS=596u TT=3n VDS=30 VJ=0.9 VTO=2.77)
.MODEL BSC035N04LS VDMOS(A=0.6 CGDMAX=0.76n CGDMIN=51p CGS=3.74n CJO=2.65n IS=27.6p KP=356 LAMBDA=0.09 M=0.3 MFG=Infineon N=1.1 QG=23n RB=754u RD=2.01m RG=1.5 RON=3.5m RS=254u TT=3n VDS=40 VJ=0.9 VTO=2.89)
.MODEL BSC042N03LS VDMOS(A=0.6 CGDMAX=0.57n CGDMIN=38p CGS=2.37n CJO=2.51n IS=20.7p KP=267.2 LAMBDA=0.09 M=0.3 MFG=Infineon N=1.1 QG=15n RB=1.32m RD=2.31m RG=1.5 RON=4.2m RS=524u TT=3n VDS=30 VJ=0.9 VTO=2.77)
.MODEL BSC042N03MS VDMOS(A=0.6 CGDMAX=0.76n CGDMIN=54p CGS=3.13n CJO=2.51n IS=19.1p KP=291.5 LAMBDA=0.07 M=0.3 MFG=Infineon N=1.11 QG=20n RB=1.34m RD=2.18m RG=1.5 RON=5.4m RS=571u TT=3n VDS=30 VJ=0.9 VTO=2.52)
.MODEL BSC042NE7NS3 VDMOS(A=0.2 CGDMAX=1.14n CGDMIN=23p CGS=3.53n CJO=2.58n IS=68.9p KP=160.4 LAMBDA=0.03 M=0.27 MFG=Infineon N=1.16 QG=51n RB=1.38m RD=2.11m RG=2.2 RON=5.2m RS=404u TT=40n VDS=75 VJ=0.9 VTO=4.2)
.MODEL BSC047N08NS3 VDMOS(A=0.2 CGDMAX=1.14n CGDMIN=23p CGS=3.53n CJO=3.17n IS=68.9p KP=160.4 LAMBDA=0.03 M=0.27 MFG=Infineon N=1.16 QG=51n RB=1.38m RD=2.4m RG=2.2 RON=4.7m RS=404u TT=40n VDS=80 VJ=0.9 VTO=3.9)
.MODEL BSC050N03LS VDMOS(A=0.6 CGDMAX=0.47n CGDMIN=32p CGS=1.97n CJO=2.14n IS=17.2p KP=221.7 LAMBDA=0.09 M=0.3 MFG=Infineon N=1.1 QG=13n RB=1.44m RD=2.77m RG=1.4 RON=5m RS=473u TT=3n VDS=30 VJ=0.9 VTO=2.77)
.MODEL BSC050N03MS VDMOS(A=0.6 CGDMAX=0.63n CGDMIN=45p CGS=2.6n CJO=2.14n IS=15.8p KP=241.8 LAMBDA=0.07 M=0.3 MFG=Infineon N=1.11 QG=17n RB=1.45m RD=2.62m RG=1.4 RON=6.3m RS=520u TT=3n VDS=30 VJ=0.9 VTO=2.52)
.MODEL BSC050N04LS VDMOS(A=0.6 CGDMAX=0.57n CGDMIN=38p CGS=2.81n CJO=2.05n IS=20.7p KP=267.2 LAMBDA=0.09 M=0.3 MFG=Infineon N=1.1 QG=17n RB=1.19m RD=2.66m RG=1.5 RON=5m RS=524u TT=3n VDS=40 VJ=0.9 VTO=2.89)
.MODEL BSC050NE2LS VDMOS(A=0.6 CGDMAX=0.24n CGDMIN=13p CGS=0.72n CJO=0.97n IS=8.2p KP=157.5 LAMBDA=0.09 M=0.75 MFG=Infineon N=1.12 QG=5n RB=2.46m RD=2.36m RG=0.65 RON=5m RS=276u TT=3n VDS=25 VJ=2.5 VTO=2.33)
.MODEL BSC052N03LS VDMOS(A=0.6 CGDMAX=0.34n CGDMIN=19p CGS=0.72n CJO=0.97n IS=8.2p KP=154.6 LAMBDA=0.07 M=0.75 MFG=Infineon N=1.12 QG=5n RB=2.46m RD=2.64m RG=0.65 RON=5.2m RS=276u TT=3n VDS=30 VJ=2.5 VTO=2.3)
.MODEL BSC054N04NS VDMOS(A=0.6 CGDMAX=0.38n CGDMIN=27p CGS=2.07n CJO=2.05n IS=20.7p KP=143.1 LAMBDA=0.03 M=0.3 MFG=Infineon N=1.1 QG=28n RB=1.24m RD=2.31m RG=1.5 RON=5.4m RS=567u TT=3n VDS=40 VJ=0.9 VTO=4.95)
.MODEL BSC057N03LS VDMOS(A=0.6 CGDMAX=0.41n CGDMIN=27p CGS=1.7n CJO=1.89n IS=14.9p KP=192.1 LAMBDA=0.09 M=0.3 MFG=Infineon N=1.1 QG=11n RB=1.58m RD=3.19m RG=1.3 RON=5.7m RS=455u TT=3n VDS=30 VJ=0.9 VTO=2.77)
.MODEL BSC057N03MS VDMOS(A=0.6 CGDMAX=0.55n CGDMIN=39p CGS=2.25n CJO=1.89n IS=13.7p KP=209.5 LAMBDA=0.07 M=0.3 MFG=Infineon N=1.11 QG=14n RB=1.57m RD=3.01m RG=1.3 RON=7.2m RS=502u TT=3n VDS=30 VJ=0.9 VTO=2.52)
.MODEL BSC057N08NS3 VDMOS(A=0.2 CGDMAX=0.92n CGDMIN=18p CGS=2.86n CJO=2.57n IS=55.7p KP=129.7 LAMBDA=0.03 M=0.27 MFG=Infineon N=1.16 QG=42n RB=1.61m RD=2.96m RG=1.9 RON=5.7m RS=404u TT=40n VDS=80 VJ=0.9 VTO=3.9)
.MODEL BSC059N04LS VDMOS(A=0.6 CGDMAX=0.47n CGDMIN=32p CGS=2.33n CJO=1.73n IS=17.2p KP=221.7 LAMBDA=0.09 M=0.3 MFG=Infineon N=1.1 QG=14n RB=1.28m RD=3.2m RG=1.4 RON=5.9m RS=473u TT=3n VDS=40 VJ=0.9 VTO=2.89)
.MODEL BSC060N10NS3 VDMOS(A=0.2 CGDMAX=0.96n CGDMIN=18p CGS=3.67n CJO=2.9n IS=172.1p KP=155.8 LAMBDA=0.03 M=0.3 MFG=Infineon N=1.19 QG=51n RB=1.1m RD=3.91m RG=1.6 RON=6m RS=404u TT=60n VDS=100 VJ=0.9 VTO=3.63)
.MODEL BSC067N06LS3 VDMOS(A=2.5 CGDMAX=1.24n CGDMIN=11p CGS=3.8n CJO=2.24n IS=6p KP=132.8 LAMBDA=0.01 M=0.3 MFG=Infineon N=1.06 QG=23n RB=1.48m RD=3.72m RG=1 RON=6.7m RS=634u TT=30n VDS=60 VJ=0.9 VTO=2.5)
.MODEL BSC072N03LD VDMOS(A=0.6 CGDMAX=0.57n CGDMIN=38p CGS=2.36n CJO=2.5n IS=20.6p KP=265.6 LAMBDA=0.09 M=0.3 MFG=Infineon N=1.1 QG=15n RB=4.14m RD=2.32m RG=1.5 RON=7.2m RS=3.33m TT=3n VDS=30 VJ=0.9 VTO=2.77)
.MODEL BSC076N06NS3 VDMOS(A=2.5 CGDMAX=0.78n CGDMIN=7p CGS=3.01n CJO=2.24n IS=6p KP=99.1 LAMBDA=0.01 M=0.3 MFG=Infineon N=1.06 QG=37n RB=2.04m RD=3.72m RG=1 RON=7.6m RS=634u TT=30n VDS=60 VJ=0.9 VTO=4.35)
.MODEL BSC077N12NS3 VDMOS(A=0.3 CGDMAX=1.4n CGDMIN=24p CGS=4.26n CJO=3.18n IS=21.3p KP=91.9 LAMBDA=0.03 M=0.35 MFG=Infineon N=1.11 QG=65n RB=1.73m RD=4.56m RG=1.3 RON=7.7m RS=450u TT=90n VDS=120 VJ=0.8 VTO=4.15)
.MODEL BSC079N10NS VDMOS(A=0.3 CGDMAX=1.4n CGDMIN=24p CGS=4.26n CJO=3.18n IS=21.3p KP=91.9 LAMBDA=0.03 M=0.35 MFG=Infineon N=1.11 QG=65n RB=1.73m RD=4.56m RG=1.3 RON=7.9m RS=450u TT=90n VDS=100 VJ=0.8 VTO=4.15)
.MODEL BSC080N03LS VDMOS(A=0.6 CGDMAX=0.28n CGDMIN=19p CGS=1.17n CJO=1.38n IS=10.3p KP=132.4 LAMBDA=0.09 M=0.3 MFG=Infineon N=1.1 QG=8n RB=2.03m RD=4.61m RG=1 RON=8m RS=414u TT=3n VDS=30 VJ=0.9 VTO=2.77)
.MODEL BSC080N03MS VDMOS(A=0.6 CGDMAX=0.38n CGDMIN=27p CGS=1.55n CJO=1.38n IS=9.5p KP=144.5 LAMBDA=0.07 M=0.3 MFG=Infineon N=1.11 QG=10n RB=2.02m RD=4.35m RG=1 RON=10.2m RS=461u TT=3n VDS=30 VJ=0.9 VTO=2.52)
.MODEL BSC082N10LS VDMOS(A=0.3 CGDMAX=1.4n CGDMIN=24p CGS=5.49n CJO=3.18n IS=21.3p KP=289.2 LAMBDA=0.03 M=0.35 MFG=Infineon N=1.07 QG=36n RB=1.92m RD=5.75m RG=1.3 RON=8.2m RS=450u TT=90n VDS=100 VJ=0.8 VTO=2.9)
.MODEL BSC0901NS VDMOS(A=0.6 CGDMAX=1.26n CGDMIN=72p CGS=2.71n CJO=3.1n IS=30.7p KP=579.7 LAMBDA=0.07 M=0.75 MFG=Infineon N=1.12 QG=21n RB=945u RD=720u RG=0.8 RON=1.9m RS=365u TT=3n VDS=30 VJ=2.5 VTO=2.3)
.MODEL BSC0901NSI VDMOS(A=0.6 CGDMAX=1.26n CGDMIN=51p CGS=2.42n CJO=3.1n IS=30702p KP=511.8 LAMBDA=0.09 M=0.75 MFG=Infineon N=1.12 QG=19n RB=2.61m RD=770u RG=0.8 RON=2m RS=365u TT=1p VDS=30 VJ=2.5 VTO=2.33)
.MODEL BSC0902NS VDMOS(A=0.6 CGDMAX=0.75n CGDMIN=43p CGS=1.61n CJO=1.94n IS=18.3p KP=345.1 LAMBDA=0.07 M=0.75 MFG=Infineon N=1.12 QG=12n RB=1.31m RD=1.19m RG=0.9 RON=2.6m RS=331u TT=3n VDS=30 VJ=2.5 VTO=2.3)
.MODEL BSC0902NSI VDMOS(A=0.6 CGDMAX=0.75n CGDMIN=30p CGS=1.44n CJO=1.94n IS=18275p KP=304.7 LAMBDA=0.09 M=0.75 MFG=Infineon N=1.12 QG=11n RB=4.1m RD=1.28m RG=0.9 RON=2.8m RS=331u TT=1p VDS=30 VJ=2.5 VTO=2.33)
.MODEL BSC0904NSI VDMOS(A=0.6 CGDMAX=0.52n CGDMIN=21p CGS=0.99n CJO=1.4n IS=12605.5p KP=210.1 LAMBDA=0.09 M=0.75 MFG=Infineon N=1.12 QG=8n RB=5.76m RD=1.84m RG=0.9 RON=3.7m RS=301u TT=1p VDS=30 VJ=2.5 VTO=2.33)
.MODEL BSC0906NS VDMOS(A=0.6 CGDMAX=0.38n CGDMIN=22p CGS=0.82n CJO=1.08n IS=9.3p KP=174.8 LAMBDA=0.07 M=0.75 MFG=Infineon N=1.12 QG=6n RB=2.21m RD=2.34m RG=4 RON=4.5m RS=276u TT=3n VDS=30 VJ=2.5 VTO=2.3)
.MODEL BSC090N03LS VDMOS(A=0.6 CGDMAX=0.25n CGDMIN=17p CGS=1.05n CJO=1.26n IS=9.2p KP=118.7 LAMBDA=0.09 M=0.3 MFG=Infineon N=1.1 QG=7n RB=2.22m RD=5.13m RG=1 RON=9m RS=407u TT=3n VDS=30 VJ=0.9 VTO=2.77)
.MODEL BSC090N03MS VDMOS(A=0.6 CGDMAX=0.34n CGDMIN=24p CGS=1.39n CJO=1.26n IS=8.5p KP=129.5 LAMBDA=0.07 M=0.3 MFG=Infineon N=1.11 QG=9n RB=2.19m RD=4.84m RG=1 RON=11.2m RS=454u TT=3n VDS=30 VJ=0.9 VTO=2.52)
.MODEL BSC093N04LS VDMOS(A=0.6 CGDMAX=0.28n CGDMIN=19p CGS=1.39n CJO=1.1n IS=10.3p KP=132.4 LAMBDA=0.09 M=0.3 MFG=Infineon N=1.1 QG=9n RB=1.81m RD=5.32m RG=1 RON=9.3m RS=461u TT=3n VDS=40 VJ=0.9 VTO=2.89)
.MODEL BSC100N03LS VDMOS(A=0.6 CGDMAX=0.24n CGDMIN=16p CGS=0.98n CJO=1.19n IS=8.6p KP=110.9 LAMBDA=0.09 M=0.3 MFG=Infineon N=1.1 QG=6n RB=2.34m RD=5.49m RG=0.9 RON=10m RS=402u TT=3n VDS=30 VJ=0.9 VTO=2.77)
.MODEL BSC100N03MS VDMOS(A=0.6 CGDMAX=0.32n CGDMIN=23p CGS=1.3n CJO=1.19n IS=7.9p KP=120.9 LAMBDA=0.07 M=0.3 MFG=Infineon N=1.11 QG=8n RB=2.31m RD=5.18m RG=0.9 RON=12m RS=449u TT=3n VDS=30 VJ=0.9 VTO=2.52)
.MODEL BSC100N06LS3 VDMOS(A=2.5 CGDMAX=0.82n CGDMIN=7p CGS=2.53n CJO=1.55n IS=4p KP=87.8 LAMBDA=0.01 M=0.3 MFG=Infineon N=1.06 QG=15n RB=1.83m RD=5.61m RG=1.3 RON=10m RS=546u TT=30n VDS=60 VJ=0.9 VTO=2.5)
.MODEL BSC100N10NSF VDMOS(A=0.3 CGDMAX=0.7n CGDMIN=24p CGS=2.13n CJO=2.24n IS=21.3p KP=56.1 LAMBDA=0.03 M=0.35 MFG=Infineon N=1.11 QG=33n RB=1.16m RD=4.47m RG=1.3 RON=10m RS=450u TT=90n VDS=100 VJ=0.8 VTO=4.25)
.MODEL BSC105N10LSF VDMOS(A=0.3 CGDMAX=0.7n CGDMIN=24p CGS=2.75n CJO=3.25n IS=21.3p KP=129.3 LAMBDA=0.03 M=0.35 MFG=Infineon N=1.07 QG=18n RB=1.92m RD=5.54m RG=1.3 RON=10.5m RS=450u TT=90n VDS=100 VJ=0.8 VTO=2.8)
.MODEL BSC110N06NS3 VDMOS(A=2.5 CGDMAX=0.51n CGDMIN=5p CGS=1.99n CJO=1.55n IS=4p KP=65.5 LAMBDA=0.01 M=0.3 MFG=Infineon N=1.06 QG=25n RB=2.69m RD=5.61m RG=1.3 RON=11m RS=546u TT=30n VDS=60 VJ=0.9 VTO=4.35)
.MODEL BSC118N10NS VDMOS(A=0.3 CGDMAX=0.9n CGDMIN=15p CGS=2.74n CJO=2.05n IS=13.7p KP=59.1 LAMBDA=0.03 M=0.35 MFG=Infineon N=1.11 QG=42n RB=2.35m RD=7.09m RG=1 RON=11.8m RS=349u TT=90n VDS=100 VJ=0.8 VTO=4.15)
.MODEL BSC120N03LS VDMOS(A=0.6 CGDMAX=0.21n CGDMIN=14p CGS=0.85n CJO=1.06n IS=7.4p KP=96 LAMBDA=0.09 M=0.3 MFG=Infineon N=1.1 QG=5n RB=2.65m RD=6.33m RG=0.9 RON=12m RS=414u TT=3n VDS=30 VJ=0.9 VTO=2.77)
.MODEL BSC120N03MS VDMOS(A=0.6 CGDMAX=0.27n CGDMIN=20p CGS=1.13n CJO=1.06n IS=6.9p KP=104.8 LAMBDA=0.07 M=0.3 MFG=Infineon N=1.11 QG=7n RB=2.56m RD=5.97m RG=0.9 RON=14m RS=414u TT=3n VDS=30 VJ=0.9 VTO=2.52)
.MODEL BSC123N08NS3 VDMOS(A=0.2 CGDMAX=0.42n CGDMIN=8p CGS=1.29n CJO=1.16n IS=25.1p KP=58.4 LAMBDA=0.03 M=0.27 MFG=Infineon N=1.16 QG=19n RB=3.3m RD=6.5m RG=2 RON=12.3m RS=603u TT=40n VDS=80 VJ=0.9 VTO=3.9)
.MODEL BSC123N10LS VDMOS(A=0.3 CGDMAX=0.9n CGDMIN=15p CGS=3.53n CJO=2.05n IS=13.7p KP=185.9 LAMBDA=0.03 M=0.35 MFG=Infineon N=1.07 QG=23n RB=2.64m RD=8.95m RG=1 RON=12.3m RS=349u TT=90n VDS=100 VJ=0.8 VTO=2.9)
.MODEL BSC12DN20NS3 VDMOS(A=0.5 CGDMAX=0.07n CGDMIN=2p CGS=0.45n CJO=0.68n IS=4.3p KP=12.4 LAMBDA=0.015 M=0.45 MFG=Infineon N=1.12 QG=6n RB=13.79m RD=92.72m RG=2.2 RON=125m RS=455u TT=120n VDS=200 VJ=0.9 VTO=3.7)
.MODEL BSC150N03LD VDMOS(A=0.6 CGDMAX=0.18n CGDMIN=12p CGS=0.75n CJO=0.96n IS=6.6p KP=84.9 LAMBDA=0.09 M=0.3 MFG=Infineon N=1.1 QG=5n RB=5.78m RD=7.16m RG=1.2 RON=15m RS=3.25m TT=3n VDS=30 VJ=0.9 VTO=2.77)
.MODEL BSC152N10NSF VDMOS(A=0.3 CGDMAX=0.45n CGDMIN=15p CGS=1.37n CJO=1.44n IS=13.7p KP=36 LAMBDA=0.03 M=0.35 MFG=Infineon N=1.11 QG=21n RB=1.46m RD=6.95m RG=1 RON=15.2m RS=349u TT=90n VDS=100 VJ=0.8 VTO=4.25)
.MODEL BSC159N10LSF VDMOS(A=0.3 CGDMAX=0.45n CGDMIN=15p CGS=1.77n CJO=2.09n IS=13.7p KP=83.1 LAMBDA=0.03 M=0.35 MFG=Infineon N=1.07 QG=11n RB=2.64m RD=8.61m RG=1 RON=15.9m RS=349u TT=90n VDS=100 VJ=0.8 VTO=2.8)
.MODEL BSC160N10NS3 VDMOS(A=0.2 CGDMAX=0.35n CGDMIN=7p CGS=1.34n CJO=1.06n IS=62.7p KP=56.8 LAMBDA=0.03 M=0.3 MFG=Infineon N=1.19 QG=19n RB=2.51m RD=10.66m RG=1.3 RON=16m RS=603u TT=60n VDS=100 VJ=0.9 VTO=3.63)
.MODEL BSC16DN25NS3 VDMOS(A=0.5 CGDMAX=0.09n CGDMIN=2p CGS=0.63n CJO=0.95n IS=6p KP=17.4 LAMBDA=0.015 M=0.48 MFG=Infineon N=1.12 QG=8n RB=10.05m RD=132.01m RG=2.4 RON=165m RS=561u TT=150n VDS=250 VJ=0.9 VTO=3.7)
.MODEL BSC190N12NS3 VDMOS(A=0.3 CGDMAX=0.53n CGDMIN=9p CGS=1.62n CJO=1.21n IS=8.1p KP=35 LAMBDA=0.03 M=0.35 MFG=Infineon N=1.11 QG=25n RB=3.65m RD=11.96m RG=1.5 RON=19m RS=276u TT=90n VDS=120 VJ=0.8 VTO=4.15)
.MODEL BSC190N15NS3 VDMOS(A=0.5 CGDMAX=0.27n CGDMIN=6p CGS=1.81n CJO=2.72n IS=68.9p KP=49.8 LAMBDA=0.02 M=0.4 MFG=Infineon N=1.185 QG=23n RB=1.61m RD=11.97m RG=2.4 RON=19m RS=404u TT=100n VDS=150 VJ=0.9 VTO=4.4)
.MODEL BSC196N10NS VDMOS(A=0.3 CGDMAX=0.53n CGDMIN=9p CGS=1.62n CJO=1.21n IS=8.1p KP=35 LAMBDA=0.03 M=0.35 MFG=Infineon N=1.11 QG=25n RB=3.65m RD=11.96m RG=1.5 RON=19.6m RS=276u TT=90n VDS=100 VJ=0.8 VTO=4.15)
.MODEL BSC205N10LS VDMOS(A=0.3 CGDMAX=0.53n CGDMIN=9p CGS=2.09n CJO=1.21n IS=8.1p KP=110.1 LAMBDA=0.03 M=0.35 MFG=Infineon N=1.07 QG=14n RB=4.15m RD=15.1m RG=1.5 RON=20.5m RS=276u TT=90n VDS=100 VJ=0.8 VTO=2.9)
.MODEL BSC22DN20NS3 VDMOS(A=0.5 CGDMAX=0.04n CGDMIN=1p CGS=0.25n CJO=0.38n IS=2.4p KP=7 LAMBDA=0.015 M=0.45 MFG=Infineon N=1.12 QG=3n RB=23.78m RD=163.71m RG=2 RON=225m RS=233u TT=120n VDS=200 VJ=0.9 VTO=3.7)
.MODEL BSC240N12NS3 VDMOS(A=0.3 CGDMAX=0.42n CGDMIN=7p CGS=1.28n CJO=0.96n IS=6.4p KP=27.7 LAMBDA=0.03 M=0.35 MFG=Infineon N=1.11 QG=20n RB=4.63m RD=15.14m RG=1.5 RON=24m RS=367u TT=90n VDS=120 VJ=0.8 VTO=4.15)
.MODEL BSC252N10NSF VDMOS(A=0.3 CGDMAX=0.26n CGDMIN=9p CGS=0.81n CJO=0.85n IS=8.1p KP=21.3 LAMBDA=0.03 M=0.35 MFG=Infineon N=1.11 QG=12n RB=2.15m RD=11.72m RG=1.5 RON=25.2m RS=276u TT=90n VDS=100 VJ=0.8 VTO=4.25)
.MODEL BSC265N10LSF VDMOS(A=0.3 CGDMAX=0.26n CGDMIN=9p CGS=1.05n CJO=1.24n IS=8.1p KP=49.2 LAMBDA=0.03 M=0.35 MFG=Infineon N=1.07 QG=7n RB=4.15m RD=14.53m RG=1.5 RON=26.5m RS=276u TT=90n VDS=100 VJ=0.8 VTO=2.8)
.MODEL BSC320N20NS3 VDMOS(A=0.5 CGDMAX=0.27n CGDMIN=6p CGS=1.77n CJO=2.66n IS=16.8p KP=48.7 LAMBDA=0.015 M=0.45 MFG=Infineon N=1.12 QG=22n RB=3.79m RD=23.61m RG=2.4 RON=32m RS=404u TT=120n VDS=200 VJ=0.9 VTO=3.7)
.MODEL BSC340N08NS3 VDMOS(A=0.2 CGDMAX=0.15n CGDMIN=3p CGS=0.46n CJO=0.41n IS=9p KP=20.9 LAMBDA=0.03 M=0.27 MFG=Infineon N=1.16 QG=7n RB=7.9m RD=18.1m RG=1.1 RON=34m RS=364u TT=40n VDS=80 VJ=0.9 VTO=3.9)
.MODEL BSC360N15NS3 VDMOS(A=0.5 CGDMAX=0.13n CGDMIN=3p CGS=0.89n CJO=1.33n IS=33.8p KP=24.5 LAMBDA=0.02 M=0.4 MFG=Infineon N=1.185 QG=11n RB=2.72m RD=24.34m RG=2.1 RON=36m RS=251u TT=100n VDS=150 VJ=0.9 VTO=4.4)
.MODEL BSC42DN25NS3 VDMOS(A=0.5 CGDMAX=0.04n CGDMIN=1p CGS=0.25n CJO=0.38n IS=2.4p KP=7 LAMBDA=0.015 M=0.48 MFG=Infineon N=1.12 QG=3n RB=23.78m RD=327.37m RG=2 RON=425m RS=233u TT=150n VDS=250 VJ=0.9 VTO=3.7)
.MODEL BSC440N10NS3 VDMOS(A=0.2 CGDMAX=0.13n CGDMIN=2p CGS=0.6n CJO=0.49n IS=22.4p KP=20.3 LAMBDA=0.03 M=0.3 MFG=Infineon N=1.19 QG=8n RB=5.7m RD=29.71m RG=0.8 RON=44m RS=364u TT=60n VDS=100 VJ=0.9 VTO=3.63)
.MODEL BSC520N15NS3 VDMOS(A=0.5 CGDMAX=0.1n CGDMIN=2p CGS=0.66n CJO=1n IS=25.2p KP=18.3 LAMBDA=0.02 M=0.4 MFG=Infineon N=1.185 QG=9n RB=3.91m RD=32.58m RG=2.1 RON=52m RS=603u TT=100n VDS=150 VJ=0.9 VTO=4.4)
.MODEL BSC600N25NS3 VDMOS(A=0.5 CGDMAX=0.27n CGDMIN=6p CGS=1.77n CJO=2.66n IS=16.8p KP=48.7 LAMBDA=0.015 M=0.48 MFG=Infineon N=1.12 QG=21n RB=3.79m RD=47.17m RG=2.4 RON=60m RS=404u TT=150n VDS=250 VJ=0.9 VTO=3.7)
.MODEL BSC750N10ND VDMOS(A=0.3 CGDMAX=0.15n CGDMIN=3p CGS=0.47n CJO=0.35n IS=2.4p KP=10.2 LAMBDA=0.03 M=0.35 MFG=Infineon N=1.11 QG=7n RB=16.69m RD=41.21m RG=0.8 RON=75m RS=5.06m TT=90n VDS=100 VJ=0.8 VTO=4.15)
.MODEL BSC900N20NS3 VDMOS(A=0.5 CGDMAX=0.09n CGDMIN=2p CGS=0.63n CJO=0.95n IS=6p KP=17.4 LAMBDA=0.015 M=0.45 MFG=Infineon N=1.12 QG=8n RB=10.05m RD=66.03m RG=2.4 RON=90m RS=561u TT=120n VDS=200 VJ=0.9 VTO=3.7)
.MODEL BSF024N03LT3 VDMOS(A=0.6 CGDMAX=0.89n CGDMIN=59p CGS=3.68n CJO=3.7n IS=32.1p KP=415 LAMBDA=0.09 M=0.3 MFG=Infineon N=1.1 QG=24n RB=820u RD=1.51m RG=0.5 RON=2.4m RS=300u TT=3n VDS=30 VJ=0.9 VTO=2.77)
.MODEL BSF024N03MT3 VDMOS(A=0.6 CGDMAX=1.18n CGDMIN=85p CGS=4.86n CJO=3.7n IS=29.6p KP=452.6 LAMBDA=0.07 M=0.3 MFG=Infineon N=1.11 QG=31n RB=800u RD=1.43m RG=0.5 RON=2.4m RS=300u TT=3n VDS=30 VJ=0.9 VTO=2.52)
.MODEL BSF030NE2LQ VDMOS(A=0.6 CGDMAX=0.55n CGDMIN=31p CGS=1.64n CJO=1.98n IS=18.6p KP=358.1 LAMBDA=0.09 M=0.75 MFG=Infineon N=1.12 QG=11n RB=1.08m RD=1.72m RG=0.5 RON=3m RS=123u TT=3n VDS=25 VJ=2.5 VTO=2.33)
.MODEL BSF045N03LQ3 VDMOS(A=0.6 CGDMAX=0.47n CGDMIN=31p CGS=1.95n CJO=2.12n IS=17p KP=219.7 LAMBDA=0.09 M=0.3 MFG=Infineon N=1.1 QG=13n RB=1.33m RD=2.81m RG=1.4 RON=4.5m RS=348u TT=3n VDS=30 VJ=0.9 VTO=2.77)
.MODEL BSF045N03MQ3 VDMOS(A=0.6 CGDMAX=0.63n CGDMIN=45p CGS=2.58n CJO=2.12n IS=15.7p KP=239.7 LAMBDA=0.07 M=0.3 MFG=Infineon N=1.11 QG=17n RB=1.29m RD=2.65m RG=1.4 RON=4.5m RS=348u TT=3n VDS=30 VJ=0.9 VTO=2.52)
.MODEL BSF050N03LQ3 VDMOS(A=0.6 CGDMAX=0.41n CGDMIN=27p CGS=1.71n CJO=1.9n IS=14.9p KP=192.7 LAMBDA=0.09 M=0.3 MFG=Infineon N=1.1 QG=11n RB=1.38m RD=3.19m RG=0.4 RON=5m RS=258u TT=3n VDS=30 VJ=0.9 VTO=2.77)
.MODEL BSF050N03MQ3 VDMOS(A=0.6 CGDMAX=0.55n CGDMIN=39p CGS=2.26n CJO=1.9n IS=13.7p KP=210.1 LAMBDA=0.07 M=0.3 MFG=Infineon N=1.11 QG=15n RB=1.33m RD=3.01m RG=0.5 RON=5m RS=258u TT=3n VDS=30 VJ=0.9 VTO=2.52)
.MODEL BSF885N03LQ3 VDMOS(A=0.6 CGDMAX=0.41n CGDMIN=27p CGS=1.71n CJO=1.9n IS=14.9p KP=192.7 LAMBDA=0.09 M=0.3 MFG=Infineon N=1.1 QG=11n RB=1.38m RD=3.19m RG=0.4 RON=5m RS=258u TT=3n VDS=30 VJ=0.9 VTO=2.77)
.MODEL BSH114 VDMOS(CGDMAX=0.2n CGDMIN=0.02n CGS=0.3n CJO=0.09n IS=9.2p KP=1.5 MFG=Philips QG=4.6n RB=0.3 RD=0.2 RG=3 RON=0.5 RS=0.2 VDS=100 VTO=3)
.MODEL BSO033N03MS VDMOS(A=0.6 CGDMAX=1.71n CGDMIN=122p CGS=7.04n CJO=5.15n IS=42.8p KP=654.8 LAMBDA=0.07 M=0.3 MFG=Infineon N=1.11 QG=45n RB=1.65m RD=1.19m RG=1.9 RON=3.8m RS=1.31m TT=3n VDS=30 VJ=0.9 VTO=2.52)
.MODEL BSO040N03MS VDMOS(A=0.6 CGDMAX=1.02n CGDMIN=73p CGS=4.17n CJO=3.23n IS=25.4p KP=388.3 LAMBDA=0.07 M=0.3 MFG=Infineon N=1.11 QG=27n RB=1.79m RD=1.89m RG=1.5 RON=4.9m RS=1.21m TT=3n VDS=30 VJ=0.9 VTO=2.52)
.MODEL BSO051N03MS VDMOS(A=0.6 CGDMAX=0.76n CGDMIN=54p CGS=3.13n CJO=2.51n IS=19.1p KP=291.5 LAMBDA=0.07 M=0.3 MFG=Infineon N=1.11 QG=20n RB=2.2m RD=2.45m RG=1.5 RON=6.2m RS=1.43m TT=3n VDS=30 VJ=0.9 VTO=2.52)
.MODEL BSO065N03MS VDMOS(A=0.6 CGDMAX=0.55n CGDMIN=39p CGS=2.25n CJO=1.89n IS=13.7p KP=209.5 LAMBDA=0.07 M=0.3 MFG=Infineon N=1.11 QG=14n RB=2.51m RD=3.34m RG=1.3 RON=8m RS=1.44m TT=3n VDS=30 VJ=0.9 VTO=2.52)
.MODEL BSO070N08NS3 VDMOS(A=0.2 CGDMAX=0.92n CGDMIN=18p CGS=2.86n CJO=2.57n IS=55.7p KP=129.7 LAMBDA=0.03 M=0.27 MFG=Infineon N=1.16 QG=42n RB=2.45m RD=3.12m RG=1.9 RON=7m RS=1.24m TT=40n VDS=80 VJ=0.9 VTO=3.9)
.MODEL BSO083N03MS VDMOS(A=0.6 CGDMAX=0.38n CGDMIN=27p CGS=1.55n CJO=1.38n IS=9.5p KP=144.5 LAMBDA=0.07 M=0.3 MFG=Infineon N=1.11 QG=10n RB=2.86m RD=4.77m RG=1 RON=10.5m RS=1.3m TT=3n VDS=30 VJ=0.9 VTO=2.52)
.MODEL BSO110N03MS VDMOS(A=0.6 CGDMAX=0.27n CGDMIN=20p CGS=1.13n CJO=1.06n IS=6.9p KP=104.8 LAMBDA=0.07 M=0.3 MFG=Infineon N=1.11 QG=7n RB=3.61m RD=6.51m RG=0.9 RON=13.9m RS=1.46m TT=3n VDS=30 VJ=0.9 VTO=2.52)
.MODEL BSO130N03MS VDMOS(A=0.6 CGDMAX=0.23n CGDMIN=17p CGS=0.95n CJO=0.92n IS=5.8p KP=88.3 LAMBDA=0.07 M=0.3 MFG=Infineon N=1.11 QG=6n RB=4.64m RD=7.69m RG=1.1 RON=16.6m RS=2.09m TT=3n VDS=30 VJ=0.9 VTO=2.52)
.MODEL BSO140N08NS3 VDMOS(A=0.2 CGDMAX=0.42n CGDMIN=8p CGS=1.29n CJO=1.16n IS=25.1p KP=58.4 LAMBDA=0.03 M=0.27 MFG=Infineon N=1.16 QG=19n RB=4.43m RD=6.7m RG=2 RON=14m RS=1.73m TT=40n VDS=80 VJ=0.9 VTO=3.9)
.MODEL BSO150N03MD VDMOS(A=0.6 CGDMAX=0.23n CGDMIN=17p CGS=0.95n CJO=0.92n IS=5.8p KP=88.3 LAMBDA=0.07 M=0.3 MFG=Infineon N=1.11 QG=6n RB=6.07m RD=7.87m RG=1.1 RON=18.2m RS=3.52m TT=3n VDS=30 VJ=0.9 VTO=2.52)
.MODEL BSO180N10NS3 VDMOS(A=0.2 CGDMAX=0.35n CGDMIN=7p CGS=1.34n CJO=1.06n IS=62.7p KP=56.8 LAMBDA=0.03 M=0.3 MFG=Infineon N=1.19 QG=19n RB=3.64m RD=10.86m RG=1.3 RON=18m RS=1.73m TT=60n VDS=100 VJ=0.9 VTO=3.63)
.MODEL BSO220N03MD VDMOS(A=0.6 CGDMAX=0.14n CGDMIN=10p CGS=0.59n CJO=0.64n IS=3.6p KP=55.1 LAMBDA=0.07 M=0.3 MFG=Infineon N=1.11 QG=4n RB=7.14m RD=12.27m RG=1.3 RON=27m RS=3.06m TT=3n VDS=30 VJ=0.9 VTO=2.52)
.MODEL BSO220N03MS VDMOS(A=0.6 CGDMAX=0.14n CGDMIN=10p CGS=0.59n CJO=0.64n IS=3.6p KP=55.1 LAMBDA=0.07 M=0.3 MFG=Infineon N=1.11 QG=4n RB=6.81m RD=12.22m RG=1.3 RON=27m RS=2.73m TT=3n VDS=30 VJ=0.9 VTO=2.52)
.MODEL BSO350N08NS3 VDMOS(A=0.2 CGDMAX=0.15n CGDMIN=3p CGS=0.46n CJO=0.41n IS=9p KP=20.9 LAMBDA=0.03 M=0.27 MFG=Infineon N=1.16 QG=7n RB=9.44m RD=18.43m RG=1.1 RON=35m RS=1.9m TT=40n VDS=80 VJ=0.9 VTO=3.9)
.MODEL BSO440N10NS3 VDMOS(A=0.2 CGDMAX=0.13n CGDMIN=2p CGS=0.6n CJO=0.49n IS=22.4p KP=20.3 LAMBDA=0.03 M=0.3 MFG=Infineon N=1.19 QG=8n RB=7.24m RD=30.04m RG=0.8 RON=44m RS=1.9m TT=60n VDS=100 VJ=0.9 VTO=3.63)
.MODEL BSS123 VDMOS(CGDMAX=0.1n CGDMIN=0.01n CGS=0.1n CJO=0.03n IS=2.8p KP=1 MFG=Fairchild QG=1.4n RB=3 RD=2.4 RG=3 RON=6 RS=1.8 VDS=100 VTO=1.6)
.MODEL BSS145 VDMOS(CGDMAX=0.08n CGDMIN=0.001n CGS=0.01n CJO=0.004n IS=0.5p KP=0.15 MFG=Infineon QG=2n RB=1.75 RD=1.4 RG=3 RON=3500m RS=1 VDS=100 VTO=2.8)
.MODEL BSS84 VDMOS(CGDMAX=0.04n CGDMIN=0.001n CGS=0.02n CJO=0.01n IS=2p KP=0.2 MFG=Philips PCHAN QG=1n RB=3 RD=2.4 RG=3 RON=6000m RS=1.8 VDS=-50 VTO=-2.1)
.MODEL BSZ018NE2LS VDMOS(A=0.6 CGDMAX=0.9n CGDMIN=51p CGS=2.71n CJO=3.1n IS=30.7p KP=590.6 LAMBDA=0.09 M=0.75 MFG=Infineon N=1.12 QG=19n RB=1.24m RD=640u RG=0.8 RON=1.8m RS=662u TT=3n VDS=25 VJ=2.5 VTO=2.33)
.MODEL BSZ019N03LS VDMOS(A=0.6 CGDMAX=1.26n CGDMIN=72p CGS=2.71n CJO=3.1n IS=30.7p KP=579.7 LAMBDA=0.07 M=0.75 MFG=Infineon N=1.12 QG=21n RB=1.24m RD=720u RG=0.8 RON=1.9m RS=662u TT=3n VDS=30 VJ=2.5 VTO=2.3)
.MODEL BSZ035N03LS VDMOS(A=0.6 CGDMAX=0.77n CGDMIN=51p CGS=3.19n CJO=3.26n IS=27.9p KP=359.9 LAMBDA=0.09 M=0.3 MFG=Infineon N=1.1 QG=20n RB=1.19m RD=1.73m RG=1.8 RON=3.5m RS=586u TT=3n VDS=30 VJ=0.9 VTO=2.77)